/*---------------------------------------------------------------------------*\
  =========                 |
  \\      /  F ield         | OpenFOAM: The Open Source CFD Toolbox
   \\    /   O peration     | Website:  https://openfoam.org
    \\  /    A nd           | Version:  9
     \\/     M anipulation  |
\*---------------------------------------------------------------------------*/
Build  : 9-b456138dc4bc
Exec   : simpleFoam -parallel
Date   : Apr 09 2022
Time   : 06:02:49
Host   : "KORIN-LAB"
PID    : 901
I/O    : uncollated
Case   : /home/colin/OpenFOAM/colin-9/run/wsl/wedge_needle/25_temp/90_needle_layer
nProcs : 6
Slaves : 
5
(
"KORIN-LAB.902"
"KORIN-LAB.903"
"KORIN-LAB.904"
"KORIN-LAB.905"
"KORIN-LAB.906"
)

Pstream initialised with:
    floatTransfer      : 0
    nProcsSimpleSum    : 0
    commsType          : nonBlocking
    polling iterations : 0
sigFpe : Enabling floating point exception trapping (FOAM_SIGFPE).
fileModificationChecking : Monitoring run-time modified files using timeStampMaster (fileModificationSkew 10)
allowSystemOperations : Allowing user-supplied system call operations

// * * * * * * * * * * * * * * * * * * * * * * * * * * * * * * * * * * * * * //
Create time

Create mesh for time = 0


SIMPLE: Convergence criteria found
        p: tolerance 0.001
        U: tolerance 0.0001
        "(k|epsilon|omega|f|v2)": tolerance 0.0001

Reading field p

Reading field U

Reading/calculating face flux field phi

Selecting incompressible transport model powerLaw
Selecting turbulence model type laminar
Selecting laminar stress model Stokes
No MRF models present

No fvModels present
No fvConstraints present

Starting time loop

wallShearStress wallShearStress:
    processing all wall patches

Time = 1

smoothSolver:  Solving for Ux, Initial residual = 0.981809799804, Final residual = 0.0793339570525, No Iterations 2
smoothSolver:  Solving for Uy, Initial residual = 1, Final residual = 0.0572562251193, No Iterations 2
smoothSolver:  Solving for Uz, Initial residual = 1, Final residual = 0.0816529803376, No Iterations 2
GAMG:  Solving for p, Initial residual = 0.999999999986, Final residual = 0.0422122104554, No Iterations 32
time step continuity errors : sum local = 0.021927010898, global = -0.000279621437401, cumulative = -0.000279621437401
ExecutionTime = 0.15 s  ClockTime = 1 s

Time = 2

smoothSolver:  Solving for Ux, Initial residual = 0.815617305676, Final residual = 0.0744721032525, No Iterations 3
smoothSolver:  Solving for Uy, Initial residual = 0.991333569371, Final residual = 0.0864354401248, No Iterations 4
smoothSolver:  Solving for Uz, Initial residual = 0.993191832411, Final residual = 0.0843484337743, No Iterations 4
GAMG:  Solving for p, Initial residual = 0.00627618980299, Final residual = 0.000194146207401, No Iterations 13
time step continuity errors : sum local = 208.691407839, global = 1.68115274296, cumulative = 1.68087312153
ExecutionTime = 0.21 s  ClockTime = 1 s

Time = 3

smoothSolver:  Solving for Ux, Initial residual = 0.714340364246, Final residual = 0.046574611127, No Iterations 3
smoothSolver:  Solving for Uy, Initial residual = 0.0895255869684, Final residual = 0.00753948997506, No Iterations 4
smoothSolver:  Solving for Uz, Initial residual = 0.0779116404189, Final residual = 0.00659758749008, No Iterations 4
GAMG:  Solving for p, Initial residual = 0.0195389647327, Final residual = 0.000765027872589, No Iterations 15
time step continuity errors : sum local = 150.772330981, global = -1.61814050047, cumulative = 0.0627326210565
ExecutionTime = 0.28 s  ClockTime = 1 s

Time = 4

smoothSolver:  Solving for Ux, Initial residual = 0.041095314575, Final residual = 0.00283430112686, No Iterations 3
smoothSolver:  Solving for Uy, Initial residual = 0.077129338499, Final residual = 0.00657714314929, No Iterations 4
smoothSolver:  Solving for Uz, Initial residual = 0.0183470067448, Final residual = 0.0012498859937, No Iterations 4
GAMG:  Solving for p, Initial residual = 0.439477885277, Final residual = 0.0198382979231, No Iterations 8
time step continuity errors : sum local = 291.232729982, global = 1.02205017863, cumulative = 1.08478279969
ExecutionTime = 0.35 s  ClockTime = 1 s

Time = 5

smoothSolver:  Solving for Ux, Initial residual = 0.0118933853683, Final residual = 0.000933516883076, No Iterations 3
smoothSolver:  Solving for Uy, Initial residual = 0.0234706084173, Final residual = 0.00180525559398, No Iterations 4
smoothSolver:  Solving for Uz, Initial residual = 0.0721920562035, Final residual = 0.00599444700036, No Iterations 4
GAMG:  Solving for p, Initial residual = 0.0469546557225, Final residual = 0.00167816120356, No Iterations 7
time step continuity errors : sum local = 118.540576213, global = 0.436624782669, cumulative = 1.52140758235
ExecutionTime = 0.41 s  ClockTime = 1 s

Time = 6

smoothSolver:  Solving for Ux, Initial residual = 0.0076539043411, Final residual = 0.000763940712673, No Iterations 2
smoothSolver:  Solving for Uy, Initial residual = 0.204296547101, Final residual = 0.0172882610237, No Iterations 4
smoothSolver:  Solving for Uz, Initial residual = 0.191201005442, Final residual = 0.0161222906749, No Iterations 4
GAMG:  Solving for p, Initial residual = 0.0233975661276, Final residual = 0.000841779909322, No Iterations 13
time step continuity errors : sum local = 59.9039153576, global = -1.11631333968, cumulative = 0.405094242677
ExecutionTime = 0.48 s  ClockTime = 1 s

Time = 7

smoothSolver:  Solving for Ux, Initial residual = 0.00737006291414, Final residual = 0.000693688904896, No Iterations 2
smoothSolver:  Solving for Uy, Initial residual = 0.307990065823, Final residual = 0.0262473729513, No Iterations 4
smoothSolver:  Solving for Uz, Initial residual = 0.177080269648, Final residual = 0.0148308763686, No Iterations 4
GAMG:  Solving for p, Initial residual = 0.0679491374465, Final residual = 0.00307603604627, No Iterations 9
time step continuity errors : sum local = 123.494203257, global = -2.8274206019, cumulative = -2.42232635922
ExecutionTime = 0.55 s  ClockTime = 1 s

Time = 8

smoothSolver:  Solving for Ux, Initial residual = 0.00686446051076, Final residual = 0.000324430961704, No Iterations 3
smoothSolver:  Solving for Uy, Initial residual = 0.0814628645794, Final residual = 0.0068207981826, No Iterations 4
smoothSolver:  Solving for Uz, Initial residual = 0.0557971863807, Final residual = 0.00453777889685, No Iterations 4
GAMG:  Solving for p, Initial residual = 0.182367815226, Final residual = 0.00708882045525, No Iterations 8
time step continuity errors : sum local = 88.7794514523, global = -1.95458514642, cumulative = -4.37691150565
ExecutionTime = 0.62 s  ClockTime = 1 s

Time = 9

smoothSolver:  Solving for Ux, Initial residual = 0.00558301465072, Final residual = 0.000312916071486, No Iterations 3
smoothSolver:  Solving for Uy, Initial residual = 0.0332681344049, Final residual = 0.00264873841165, No Iterations 4
smoothSolver:  Solving for Uz, Initial residual = 0.0403996227082, Final residual = 0.00325470631728, No Iterations 4
GAMG:  Solving for p, Initial residual = 0.175622686554, Final residual = 0.00585903378471, No Iterations 10
time step continuity errors : sum local = 44.8518351284, global = 0.335420837701, cumulative = -4.04149066795
ExecutionTime = 0.69 s  ClockTime = 1 s

Time = 10

smoothSolver:  Solving for Ux, Initial residual = 0.00400121788008, Final residual = 0.00028890605313, No Iterations 3
smoothSolver:  Solving for Uy, Initial residual = 0.126796329137, Final residual = 0.0107433216647, No Iterations 4
smoothSolver:  Solving for Uz, Initial residual = 0.1117863642, Final residual = 0.00947496262829, No Iterations 4
GAMG:  Solving for p, Initial residual = 0.0402661901391, Final residual = 0.00125328933968, No Iterations 8
time step continuity errors : sum local = 21.694327888, global = 0.339766806272, cumulative = -3.70172386167
ExecutionTime = 0.76 s  ClockTime = 1 s

Time = 11

smoothSolver:  Solving for Ux, Initial residual = 0.00284657036205, Final residual = 0.000245990774648, No Iterations 3
smoothSolver:  Solving for Uy, Initial residual = 0.527023262688, Final residual = 0.0451751789402, No Iterations 4
smoothSolver:  Solving for Uz, Initial residual = 0.188747491045, Final residual = 0.0161640826969, No Iterations 4
GAMG:  Solving for p, Initial residual = 0.0489874138453, Final residual = 0.00213278953059, No Iterations 9
time step continuity errors : sum local = 32.4519452687, global = -0.0255291429913, cumulative = -3.72725300467
ExecutionTime = 0.83 s  ClockTime = 1 s

Time = 12

smoothSolver:  Solving for Ux, Initial residual = 0.00236706676407, Final residual = 0.000204746988461, No Iterations 3
smoothSolver:  Solving for Uy, Initial residual = 0.11929021113, Final residual = 0.0101267092982, No Iterations 4
smoothSolver:  Solving for Uz, Initial residual = 0.0812207492074, Final residual = 0.00696360173279, No Iterations 4
GAMG:  Solving for p, Initial residual = 0.0871690791259, Final residual = 0.00369655002671, No Iterations 9
time step continuity errors : sum local = 31.0490564692, global = 0.340781399484, cumulative = -3.38647160518
ExecutionTime = 0.9 s  ClockTime = 1 s

Time = 13

smoothSolver:  Solving for Ux, Initial residual = 0.00196757140179, Final residual = 0.000181042039223, No Iterations 3
smoothSolver:  Solving for Uy, Initial residual = 0.0425097368961, Final residual = 0.0034922106492, No Iterations 4
smoothSolver:  Solving for Uz, Initial residual = 0.0420096400751, Final residual = 0.00353507861658, No Iterations 4
GAMG:  Solving for p, Initial residual = 0.2908647327, Final residual = 0.00771761974025, No Iterations 9
time step continuity errors : sum local = 15.5428101392, global = 0.0243626755576, cumulative = -3.36210892962
ExecutionTime = 0.96 s  ClockTime = 1 s

Time = 14

smoothSolver:  Solving for Ux, Initial residual = 0.00186794589228, Final residual = 0.000176401990843, No Iterations 3
smoothSolver:  Solving for Uy, Initial residual = 0.0541451302268, Final residual = 0.00448666929809, No Iterations 4
smoothSolver:  Solving for Uz, Initial residual = 0.0447937492775, Final residual = 0.00375228221681, No Iterations 4
GAMG:  Solving for p, Initial residual = 0.093409818781, Final residual = 0.00454661783121, No Iterations 6
time step continuity errors : sum local = 20.1280807341, global = 0.0772069641658, cumulative = -3.28490196546
ExecutionTime = 1.04 s  ClockTime = 1 s

Time = 15

smoothSolver:  Solving for Ux, Initial residual = 0.00193889142081, Final residual = 0.000182695871381, No Iterations 3
smoothSolver:  Solving for Uy, Initial residual = 0.12536849762, Final residual = 0.0105381119555, No Iterations 4
smoothSolver:  Solving for Uz, Initial residual = 0.0519005402855, Final residual = 0.00434511168772, No Iterations 4
GAMG:  Solving for p, Initial residual = 0.0724710498447, Final residual = 0.00262334527917, No Iterations 6
time step continuity errors : sum local = 13.4316033097, global = -0.171169092937, cumulative = -3.4560710584
ExecutionTime = 1.11 s  ClockTime = 2 s

Time = 16

smoothSolver:  Solving for Ux, Initial residual = 0.00198978178566, Final residual = 0.000189547816208, No Iterations 3
smoothSolver:  Solving for Uy, Initial residual = 0.200641342331, Final residual = 0.0165369663189, No Iterations 4
smoothSolver:  Solving for Uz, Initial residual = 0.0384785276887, Final residual = 0.00318984589241, No Iterations 4
GAMG:  Solving for p, Initial residual = 0.0969186508471, Final residual = 0.0041007673559, No Iterations 6
time step continuity errors : sum local = 15.8272456055, global = 0.0918387624212, cumulative = -3.36423229597
ExecutionTime = 1.19 s  ClockTime = 2 s

Time = 17

smoothSolver:  Solving for Ux, Initial residual = 0.00200598418563, Final residual = 0.000193349364156, No Iterations 3
smoothSolver:  Solving for Uy, Initial residual = 0.0845830146133, Final residual = 0.00671763311402, No Iterations 4
smoothSolver:  Solving for Uz, Initial residual = 0.0254786371635, Final residual = 0.00206361207838, No Iterations 4
GAMG:  Solving for p, Initial residual = 0.16828218237, Final residual = 0.00787554579069, No Iterations 6
time step continuity errors : sum local = 16.0431588301, global = -0.112828097024, cumulative = -3.477060393
ExecutionTime = 1.26 s  ClockTime = 2 s

Time = 18

smoothSolver:  Solving for Ux, Initial residual = 0.00189185328456, Final residual = 9.64662573539e-05, No Iterations 4
smoothSolver:  Solving for Uy, Initial residual = 0.064851110688, Final residual = 0.00508027077179, No Iterations 4
smoothSolver:  Solving for Uz, Initial residual = 0.0227774475643, Final residual = 0.00183888088154, No Iterations 4
GAMG:  Solving for p, Initial residual = 0.188236678863, Final residual = 0.00681553024851, No Iterations 6
time step continuity errors : sum local = 10.419996722, global = -0.0763713912013, cumulative = -3.5534317842
ExecutionTime = 1.34 s  ClockTime = 2 s

Time = 19

smoothSolver:  Solving for Ux, Initial residual = 0.00169816729672, Final residual = 9.29745073886e-05, No Iterations 4
smoothSolver:  Solving for Uy, Initial residual = 0.113867633396, Final residual = 0.00949517112955, No Iterations 4
smoothSolver:  Solving for Uz, Initial residual = 0.0268717791023, Final residual = 0.00224555829622, No Iterations 4
GAMG:  Solving for p, Initial residual = 0.104127721185, Final residual = 0.00178410027716, No Iterations 7
time step continuity errors : sum local = 3.9871485707, global = -0.00838887468033, cumulative = -3.56182065888
ExecutionTime = 1.41 s  ClockTime = 2 s

Time = 20

smoothSolver:  Solving for Ux, Initial residual = 0.00153937138895, Final residual = 8.86147722744e-05, No Iterations 4
smoothSolver:  Solving for Uy, Initial residual = 0.0838764160851, Final residual = 0.00710474344422, No Iterations 4
smoothSolver:  Solving for Uz, Initial residual = 0.0291256669822, Final residual = 0.00248081994036, No Iterations 4
GAMG:  Solving for p, Initial residual = 0.0899747189556, Final residual = 0.00241814469872, No Iterations 6
time step continuity errors : sum local = 5.38076148747, global = 0.00176913867794, cumulative = -3.5600515202
ExecutionTime = 1.48 s  ClockTime = 2 s

Time = 21

smoothSolver:  Solving for Ux, Initial residual = 0.00140443632508, Final residual = 8.3466556037e-05, No Iterations 4
smoothSolver:  Solving for Uy, Initial residual = 0.0531300677172, Final residual = 0.00448851812381, No Iterations 4
smoothSolver:  Solving for Uz, Initial residual = 0.0294709336387, Final residual = 0.00252203852203, No Iterations 4
GAMG:  Solving for p, Initial residual = 0.081019742765, Final residual = 0.00291978261685, No Iterations 6
time step continuity errors : sum local = 6.25620184869, global = 0.0304564550599, cumulative = -3.52959506514
ExecutionTime = 1.55 s  ClockTime = 2 s

Time = 22

smoothSolver:  Solving for Ux, Initial residual = 0.00127214383431, Final residual = 7.90502624557e-05, No Iterations 4
smoothSolver:  Solving for Uy, Initial residual = 0.039106369318, Final residual = 0.00331028360663, No Iterations 4
smoothSolver:  Solving for Uz, Initial residual = 0.0252953475675, Final residual = 0.00214850131748, No Iterations 4
GAMG:  Solving for p, Initial residual = 0.104072563101, Final residual = 0.0034262766162, No Iterations 6
time step continuity errors : sum local = 5.05899259859, global = 0.01100987296, cumulative = -3.51858519218
ExecutionTime = 1.61 s  ClockTime = 2 s

Time = 23

smoothSolver:  Solving for Ux, Initial residual = 0.00120054853435, Final residual = 7.64074567319e-05, No Iterations 4
smoothSolver:  Solving for Uy, Initial residual = 0.0284554961443, Final residual = 0.00236214911608, No Iterations 4
smoothSolver:  Solving for Uz, Initial residual = 0.0215177590049, Final residual = 0.00181893119061, No Iterations 4
GAMG:  Solving for p, Initial residual = 0.14280678145, Final residual = 0.00699022521433, No Iterations 4
time step continuity errors : sum local = 6.61688885082, global = 0.0268450390638, cumulative = -3.49174015312
ExecutionTime = 1.68 s  ClockTime = 2 s

Time = 24

smoothSolver:  Solving for Ux, Initial residual = 0.00116483745636, Final residual = 7.54553799606e-05, No Iterations 4
smoothSolver:  Solving for Uy, Initial residual = 0.0306247021181, Final residual = 0.00250764395249, No Iterations 4
smoothSolver:  Solving for Uz, Initial residual = 0.0192657330824, Final residual = 0.00163215400091, No Iterations 4
GAMG:  Solving for p, Initial residual = 0.162186921126, Final residual = 0.0054789812795, No Iterations 5
time step continuity errors : sum local = 4.13487030698, global = 0.0244763201108, cumulative = -3.46726383301
ExecutionTime = 1.74 s  ClockTime = 2 s

Time = 25

smoothSolver:  Solving for Ux, Initial residual = 0.00113860383106, Final residual = 7.47826309691e-05, No Iterations 4
smoothSolver:  Solving for Uy, Initial residual = 0.0282471151044, Final residual = 0.00231301391802, No Iterations 4
smoothSolver:  Solving for Uz, Initial residual = 0.0168245098117, Final residual = 0.0014176862492, No Iterations 4
GAMG:  Solving for p, Initial residual = 0.182935830453, Final residual = 0.00663824808191, No Iterations 5
time step continuity errors : sum local = 4.28195619407, global = 0.00626948083974, cumulative = -3.46099435217
ExecutionTime = 1.82 s  ClockTime = 2 s

Time = 26

smoothSolver:  Solving for Ux, Initial residual = 0.00111080949927, Final residual = 7.39744045588e-05, No Iterations 4
smoothSolver:  Solving for Uy, Initial residual = 0.0221373387652, Final residual = 0.00176516467046, No Iterations 4
smoothSolver:  Solving for Uz, Initial residual = 0.0142758649969, Final residual = 0.00118742348423, No Iterations 4
GAMG:  Solving for p, Initial residual = 0.201587284368, Final residual = 0.0057373776836, No Iterations 5
time step continuity errors : sum local = 3.25979052203, global = -0.0111601836125, cumulative = -3.47215453578
ExecutionTime = 1.89 s  ClockTime = 2 s

Time = 27

smoothSolver:  Solving for Ux, Initial residual = 0.00108352943502, Final residual = 7.29715616742e-05, No Iterations 4
smoothSolver:  Solving for Uy, Initial residual = 0.0179865892967, Final residual = 0.00141879699187, No Iterations 4
smoothSolver:  Solving for Uz, Initial residual = 0.0125629599018, Final residual = 0.00102982085162, No Iterations 4
GAMG:  Solving for p, Initial residual = 0.188152138148, Final residual = 0.0086796808854, No Iterations 4
time step continuity errors : sum local = 4.96140800437, global = -0.0427133006382, cumulative = -3.51486783642
ExecutionTime = 1.95 s  ClockTime = 2 s

Time = 28

smoothSolver:  Solving for Ux, Initial residual = 0.00105581107396, Final residual = 7.20360235498e-05, No Iterations 4
smoothSolver:  Solving for Uy, Initial residual = 0.0157978038954, Final residual = 0.00123923430652, No Iterations 4
smoothSolver:  Solving for Uz, Initial residual = 0.0115331159183, Final residual = 0.000939087260713, No Iterations 4
GAMG:  Solving for p, Initial residual = 0.161084057271, Final residual = 0.00590222268933, No Iterations 5
time step continuity errors : sum local = 3.55015808076, global = -0.00570122565371, cumulative = -3.52056906207
ExecutionTime = 2.02 s  ClockTime = 2 s

Time = 29

smoothSolver:  Solving for Ux, Initial residual = 0.00103065690914, Final residual = 7.12003805759e-05, No Iterations 4
smoothSolver:  Solving for Uy, Initial residual = 0.0148857799031, Final residual = 0.00118396861205, No Iterations 4
smoothSolver:  Solving for Uz, Initial residual = 0.0122071177314, Final residual = 0.00101874182878, No Iterations 4
GAMG:  Solving for p, Initial residual = 0.121914817142, Final residual = 0.00361497656643, No Iterations 5
time step continuity errors : sum local = 2.48971214732, global = -0.00713023900561, cumulative = -3.52769930108
ExecutionTime = 2.09 s  ClockTime = 2 s

Time = 30

smoothSolver:  Solving for Ux, Initial residual = 0.00100221339811, Final residual = 6.98884169002e-05, No Iterations 4
smoothSolver:  Solving for Uy, Initial residual = 0.0160992421491, Final residual = 0.00131401540107, No Iterations 4
smoothSolver:  Solving for Uz, Initial residual = 0.0134225569716, Final residual = 0.00113946274067, No Iterations 4
GAMG:  Solving for p, Initial residual = 0.0915897051071, Final residual = 0.00421549677938, No Iterations 5
time step continuity errors : sum local = 3.25915169215, global = 0.0170237392215, cumulative = -3.51067556186
ExecutionTime = 2.16 s  ClockTime = 3 s

Time = 31

smoothSolver:  Solving for Ux, Initial residual = 0.000970401041574, Final residual = 6.84434986275e-05, No Iterations 4
smoothSolver:  Solving for Uy, Initial residual = 0.0165678102945, Final residual = 0.0013589881545, No Iterations 4
smoothSolver:  Solving for Uz, Initial residual = 0.0141945244264, Final residual = 0.00121349353005, No Iterations 4
GAMG:  Solving for p, Initial residual = 0.0761401784199, Final residual = 0.00344749972291, No Iterations 4
time step continuity errors : sum local = 2.73406129628, global = 0.0112007417114, cumulative = -3.49947482015
ExecutionTime = 2.23 s  ClockTime = 3 s

Time = 32

smoothSolver:  Solving for Ux, Initial residual = 0.000939722770354, Final residual = 6.7023946777e-05, No Iterations 4
smoothSolver:  Solving for Uy, Initial residual = 0.0152636281455, Final residual = 0.00125681538267, No Iterations 4
smoothSolver:  Solving for Uz, Initial residual = 0.0143077074993, Final residual = 0.00123292204812, No Iterations 4
GAMG:  Solving for p, Initial residual = 0.067343447797, Final residual = 0.00244134508415, No Iterations 4
time step continuity errors : sum local = 1.88978692444, global = 0.00810112321554, cumulative = -3.49137369693
ExecutionTime = 2.3 s  ClockTime = 3 s

Time = 33

smoothSolver:  Solving for Ux, Initial residual = 0.00091681466976, Final residual = 6.57684984014e-05, No Iterations 4
smoothSolver:  Solving for Uy, Initial residual = 0.0145514155926, Final residual = 0.00120055091566, No Iterations 4
smoothSolver:  Solving for Uz, Initial residual = 0.0136779553147, Final residual = 0.0011788607502, No Iterations 4
GAMG:  Solving for p, Initial residual = 0.0650352435166, Final residual = 0.00323547094287, No Iterations 4
time step continuity errors : sum local = 2.31081147882, global = 0.00952603636912, cumulative = -3.48184766056
ExecutionTime = 2.37 s  ClockTime = 3 s

Time = 34

smoothSolver:  Solving for Ux, Initial residual = 0.000895493044148, Final residual = 6.47117472375e-05, No Iterations 4
smoothSolver:  Solving for Uy, Initial residual = 0.0133171171554, Final residual = 0.00109737535249, No Iterations 4
smoothSolver:  Solving for Uz, Initial residual = 0.0124978677888, Final residual = 0.00107025817565, No Iterations 4
GAMG:  Solving for p, Initial residual = 0.0694940521232, Final residual = 0.00175745736164, No Iterations 6
time step continuity errors : sum local = 1.10700162333, global = 0.00326448467554, cumulative = -3.47858317588
ExecutionTime = 2.43 s  ClockTime = 3 s

Time = 35

smoothSolver:  Solving for Ux, Initial residual = 0.000876807995967, Final residual = 6.3901729556e-05, No Iterations 4
smoothSolver:  Solving for Uy, Initial residual = 0.0124299630111, Final residual = 0.00101717208484, No Iterations 4
smoothSolver:  Solving for Uz, Initial residual = 0.011019848127, Final residual = 0.000930036151359, No Iterations 4
GAMG:  Solving for p, Initial residual = 0.0866118811942, Final residual = 0.00163859216433, No Iterations 6
time step continuity errors : sum local = 0.817754046643, global = 0.00718239390358, cumulative = -3.47140078198
ExecutionTime = 2.51 s  ClockTime = 3 s

Time = 36

smoothSolver:  Solving for Ux, Initial residual = 0.000859519050852, Final residual = 6.29776449902e-05, No Iterations 4
smoothSolver:  Solving for Uy, Initial residual = 0.0109158653949, Final residual = 0.000870470538505, No Iterations 4
smoothSolver:  Solving for Uz, Initial residual = 0.00978900805968, Final residual = 0.000815256535394, No Iterations 4
GAMG:  Solving for p, Initial residual = 0.0934988422457, Final residual = 0.00301212703674, No Iterations 5
time step continuity errors : sum local = 1.35126914688, global = 0.00668943808566, cumulative = -3.4647113439
ExecutionTime = 2.57 s  ClockTime = 3 s

Time = 37

smoothSolver:  Solving for Ux, Initial residual = 0.000845805722106, Final residual = 6.22196402085e-05, No Iterations 4
smoothSolver:  Solving for Uy, Initial residual = 0.00978538256505, Final residual = 0.000770206377077, No Iterations 4
smoothSolver:  Solving for Uz, Initial residual = 0.00885855786986, Final residual = 0.000729732407562, No Iterations 4
GAMG:  Solving for p, Initial residual = 0.0947787837256, Final residual = 0.00458775239066, No Iterations 4
time step continuity errors : sum local = 1.93464412838, global = -0.00484800469163, cumulative = -3.46955934859
ExecutionTime = 2.65 s  ClockTime = 3 s

Time = 38

smoothSolver:  Solving for Ux, Initial residual = 0.000833215276337, Final residual = 6.16040862843e-05, No Iterations 4
smoothSolver:  Solving for Uy, Initial residual = 0.00898270358084, Final residual = 0.000708089754566, No Iterations 4
smoothSolver:  Solving for Uz, Initial residual = 0.0084741827679, Final residual = 0.000697417259424, No Iterations 4
GAMG:  Solving for p, Initial residual = 0.0913084184482, Final residual = 0.00344215797664, No Iterations 5
time step continuity errors : sum local = 1.3910834928, global = -0.00352940557539, cumulative = -3.47308875416
ExecutionTime = 2.73 s  ClockTime = 3 s

Time = 39

smoothSolver:  Solving for Ux, Initial residual = 0.00081993224717, Final residual = 6.0936718844e-05, No Iterations 4
smoothSolver:  Solving for Uy, Initial residual = 0.008452207347, Final residual = 0.000674022884499, No Iterations 4
smoothSolver:  Solving for Uz, Initial residual = 0.00882884779997, Final residual = 0.000741910978868, No Iterations 4
GAMG:  Solving for p, Initial residual = 0.07980448933, Final residual = 0.00179627137898, No Iterations 5
time step continuity errors : sum local = 0.734507618361, global = -0.00428403703799, cumulative = -3.4773727912
ExecutionTime = 2.81 s  ClockTime = 3 s

Time = 40

smoothSolver:  Solving for Ux, Initial residual = 0.000805713180567, Final residual = 6.01548574932e-05, No Iterations 4
smoothSolver:  Solving for Uy, Initial residual = 0.00837811901942, Final residual = 0.000683738148366, No Iterations 4
smoothSolver:  Solving for Uz, Initial residual = 0.00925044126804, Final residual = 0.00078922729387, No Iterations 4
GAMG:  Solving for p, Initial residual = 0.0660016445584, Final residual = 0.00139630348388, No Iterations 5
time step continuity errors : sum local = 0.597958496305, global = -0.000575060076469, cumulative = -3.47794785128
ExecutionTime = 2.9 s  ClockTime = 3 s

Time = 41

smoothSolver:  Solving for Ux, Initial residual = 0.000789042065271, Final residual = 5.92461818454e-05, No Iterations 4
smoothSolver:  Solving for Uy, Initial residual = 0.00849760697295, Final residual = 0.000705071199513, No Iterations 4
smoothSolver:  Solving for Uz, Initial residual = 0.00941369177255, Final residual = 0.00080706781971, No Iterations 4
GAMG:  Solving for p, Initial residual = 0.0534063958984, Final residual = 0.0026504831442, No Iterations 4
time step continuity errors : sum local = 1.1984389424, global = -0.0045072001678, cumulative = -3.48245505144
ExecutionTime = 2.98 s  ClockTime = 3 s

Time = 42

smoothSolver:  Solving for Ux, Initial residual = 0.000774043044242, Final residual = 5.84440199365e-05, No Iterations 4
smoothSolver:  Solving for Uy, Initial residual = 0.00807605799718, Final residual = 0.000672602698767, No Iterations 4
smoothSolver:  Solving for Uz, Initial residual = 0.00924931747147, Final residual = 0.000792849299209, No Iterations 4
GAMG:  Solving for p, Initial residual = 0.046935122625, Final residual = 0.00219839982841, No Iterations 4
time step continuity errors : sum local = 0.987880391565, global = 0.000552421236312, cumulative = -3.48190263021
ExecutionTime = 3.06 s  ClockTime = 3 s

Time = 43

smoothSolver:  Solving for Ux, Initial residual = 0.000762797411935, Final residual = 5.78409541543e-05, No Iterations 4
smoothSolver:  Solving for Uy, Initial residual = 0.00744848849759, Final residual = 0.000617986588226, No Iterations 4
smoothSolver:  Solving for Uz, Initial residual = 0.00890374253316, Final residual = 0.000761976435975, No Iterations 4
GAMG:  Solving for p, Initial residual = 0.0438165783247, Final residual = 0.00102271562524, No Iterations 5
time step continuity errors : sum local = 0.451306459901, global = 0.00175482164245, cumulative = -3.48014780857
ExecutionTime = 3.14 s  ClockTime = 4 s

Time = 44

smoothSolver:  Solving for Ux, Initial residual = 0.000752131021316, Final residual = 5.72384981262e-05, No Iterations 4
smoothSolver:  Solving for Uy, Initial residual = 0.00676596575104, Final residual = 0.000559471994212, No Iterations 4
smoothSolver:  Solving for Uz, Initial residual = 0.00838794677719, Final residual = 0.000716078792376, No Iterations 4
GAMG:  Solving for p, Initial residual = 0.0453818565175, Final residual = 0.000951942291791, No Iterations 6
time step continuity errors : sum local = 0.400044291508, global = 0.00138853943695, cumulative = -3.47875926913
ExecutionTime = 3.23 s  ClockTime = 4 s

Time = 45

smoothSolver:  Solving for Ux, Initial residual = 0.000739978710091, Final residual = 5.66016062279e-05, No Iterations 4
smoothSolver:  Solving for Uy, Initial residual = 0.00595619764772, Final residual = 0.00048598895702, No Iterations 4
smoothSolver:  Solving for Uz, Initial residual = 0.00784545310888, Final residual = 0.000665331901023, No Iterations 4
GAMG:  Solving for p, Initial residual = 0.0495228057541, Final residual = 0.00134217126119, No Iterations 5
time step continuity errors : sum local = 0.516676291497, global = 0.00562074276178, cumulative = -3.47313852637
ExecutionTime = 3.32 s  ClockTime = 4 s

Time = 46

smoothSolver:  Solving for Ux, Initial residual = 0.000731017666387, Final residual = 5.61770974967e-05, No Iterations 4
smoothSolver:  Solving for Uy, Initial residual = 0.00522658277937, Final residual = 0.000419212518348, No Iterations 4
smoothSolver:  Solving for Uz, Initial residual = 0.00744190389482, Final residual = 0.000627212530471, No Iterations 4
GAMG:  Solving for p, Initial residual = 0.0498686183245, Final residual = 0.00122558485725, No Iterations 5
time step continuity errors : sum local = 0.444101519451, global = 0.0036077747625, cumulative = -3.4695307516
ExecutionTime = 3.4 s  ClockTime = 4 s

Time = 47

smoothSolver:  Solving for Ux, Initial residual = 0.000722350452784, Final residual = 5.57008785779e-05, No Iterations 4
smoothSolver:  Solving for Uy, Initial residual = 0.00471595130185, Final residual = 0.000375138604781, No Iterations 4
smoothSolver:  Solving for Uz, Initial residual = 0.00721202357062, Final residual = 0.000606613714705, No Iterations 4
GAMG:  Solving for p, Initial residual = 0.0484791504356, Final residual = 0.00125039294246, No Iterations 5
time step continuity errors : sum local = 0.429751212138, global = 0.00574803812007, cumulative = -3.46378271348
ExecutionTime = 3.48 s  ClockTime = 4 s

Time = 48

smoothSolver:  Solving for Ux, Initial residual = 0.000712095659172, Final residual = 5.50337274909e-05, No Iterations 4
smoothSolver:  Solving for Uy, Initial residual = 0.00437499733664, Final residual = 0.000345455591554, No Iterations 4
smoothSolver:  Solving for Uz, Initial residual = 0.00722660088261, Final residual = 0.0006115975492, No Iterations 4
GAMG:  Solving for p, Initial residual = 0.0457763158425, Final residual = 0.000869328695197, No Iterations 5
time step continuity errors : sum local = 0.285320222415, global = 0.00264268679461, cumulative = -3.46114002669
ExecutionTime = 3.57 s  ClockTime = 4 s

Time = 49

smoothSolver:  Solving for Ux, Initial residual = 0.000703593395311, Final residual = 5.44762904257e-05, No Iterations 4
smoothSolver:  Solving for Uy, Initial residual = 0.00449895090759, Final residual = 0.000363503895817, No Iterations 4
smoothSolver:  Solving for Uz, Initial residual = 0.00735568638818, Final residual = 0.000628466590658, No Iterations 4
GAMG:  Solving for p, Initial residual = 0.0413725220182, Final residual = 0.00166351623835, No Iterations 5
time step continuity errors : sum local = 0.529340323846, global = 0.00283068743311, cumulative = -3.45830933926
ExecutionTime = 3.65 s  ClockTime = 4 s

Time = 50

smoothSolver:  Solving for Ux, Initial residual = 0.000694225357262, Final residual = 5.37954098058e-05, No Iterations 4
smoothSolver:  Solving for Uy, Initial residual = 0.00441099136292, Final residual = 0.000361078668152, No Iterations 4
smoothSolver:  Solving for Uz, Initial residual = 0.00745115757052, Final residual = 0.000639412624156, No Iterations 4
GAMG:  Solving for p, Initial residual = 0.0373988568125, Final residual = 0.00101526807079, No Iterations 4
time step continuity errors : sum local = 0.312072681042, global = 0.00190071303778, cumulative = -3.45640862622
ExecutionTime = 3.74 s  ClockTime = 4 s

Time = 51

smoothSolver:  Solving for Ux, Initial residual = 0.000688318144306, Final residual = 5.34058713259e-05, No Iterations 4
smoothSolver:  Solving for Uy, Initial residual = 0.00468986243587, Final residual = 0.000392138731826, No Iterations 4
smoothSolver:  Solving for Uz, Initial residual = 0.0074405405495, Final residual = 0.000639365148608, No Iterations 4
GAMG:  Solving for p, Initial residual = 0.0327939759424, Final residual = 0.00125350522805, No Iterations 4
time step continuity errors : sum local = 0.383435687737, global = 0.00219641008414, cumulative = -3.45421221614
ExecutionTime = 3.82 s  ClockTime = 4 s

Time = 52

smoothSolver:  Solving for Ux, Initial residual = 0.00068167449389, Final residual = 5.28875837216e-05, No Iterations 4
smoothSolver:  Solving for Uy, Initial residual = 0.00449000167753, Final residual = 0.000371514710363, No Iterations 4
smoothSolver:  Solving for Uz, Initial residual = 0.00731585339491, Final residual = 0.000628947364694, No Iterations 4
GAMG:  Solving for p, Initial residual = 0.030224813968, Final residual = 0.000583888883065, No Iterations 5
time step continuity errors : sum local = 0.176844960533, global = 0.0011554826553, cumulative = -3.45305673348
ExecutionTime = 3.91 s  ClockTime = 4 s

Time = 53

smoothSolver:  Solving for Ux, Initial residual = 0.000674198168309, Final residual = 5.2352498697e-05, No Iterations 4
smoothSolver:  Solving for Uy, Initial residual = 0.00428022736772, Final residual = 0.000351897858971, No Iterations 4
smoothSolver:  Solving for Uz, Initial residual = 0.00708689880815, Final residual = 0.000608540327536, No Iterations 4
GAMG:  Solving for p, Initial residual = 0.0293499282686, Final residual = 0.000695577207227, No Iterations 5
time step continuity errors : sum local = 0.206425168776, global = 0.000898021300192, cumulative = -3.45215871218
ExecutionTime = 4 s  ClockTime = 4 s

Time = 54

smoothSolver:  Solving for Ux, Initial residual = 0.000663945471895, Final residual = 5.17224019196e-05, No Iterations 4
smoothSolver:  Solving for Uy, Initial residual = 0.0039185219823, Final residual = 0.000318065412342, No Iterations 4
smoothSolver:  Solving for Uz, Initial residual = 0.00683163783427, Final residual = 0.000585742709658, No Iterations 4
GAMG:  Solving for p, Initial residual = 0.0289840808993, Final residual = 0.000379313164182, No Iterations 6
time step continuity errors : sum local = 0.110166589996, global = 0.000662255239281, cumulative = -3.45149645694
ExecutionTime = 4.09 s  ClockTime = 4 s

Time = 55

smoothSolver:  Solving for Ux, Initial residual = 0.000654457897661, Final residual = 5.10572141113e-05, No Iterations 4
smoothSolver:  Solving for Uy, Initial residual = 0.00357238192652, Final residual = 0.000287884777377, No Iterations 4
smoothSolver:  Solving for Uz, Initial residual = 0.00658653256709, Final residual = 0.000563187952099, No Iterations 4
GAMG:  Solving for p, Initial residual = 0.0287848522485, Final residual = 0.000421220436707, No Iterations 6
time step continuity errors : sum local = 0.119315739865, global = 0.000532457398351, cumulative = -3.45096399954
ExecutionTime = 4.17 s  ClockTime = 5 s

Time = 56

smoothSolver:  Solving for Ux, Initial residual = 0.000646273830705, Final residual = 5.04559801585e-05, No Iterations 4
smoothSolver:  Solving for Uy, Initial residual = 0.00320193024547, Final residual = 0.000255816480789, No Iterations 4
smoothSolver:  Solving for Uz, Initial residual = 0.00640437160482, Final residual = 0.00054639431986, No Iterations 4
GAMG:  Solving for p, Initial residual = 0.0279078356697, Final residual = 0.00087949322598, No Iterations 5
time step continuity errors : sum local = 0.242960338115, global = 0.00275916122042, cumulative = -3.44820483832
ExecutionTime = 4.26 s  ClockTime = 5 s

Time = 57

smoothSolver:  Solving for Ux, Initial residual = 0.000637939718171, Final residual = 4.99340193338e-05, No Iterations 4
smoothSolver:  Solving for Uy, Initial residual = 0.00302192460628, Final residual = 0.000241930088963, No Iterations 4
smoothSolver:  Solving for Uz, Initial residual = 0.00632455069169, Final residual = 0.000540788071193, No Iterations 4
GAMG:  Solving for p, Initial residual = 0.0262001452312, Final residual = 0.000718066066301, No Iterations 5
time step continuity errors : sum local = 0.194604782827, global = 0.00294839483373, cumulative = -3.44525644349
ExecutionTime = 4.34 s  ClockTime = 5 s

Time = 58

smoothSolver:  Solving for Ux, Initial residual = 0.000628814045375, Final residual = 4.93638478083e-05, No Iterations 4
smoothSolver:  Solving for Uy, Initial residual = 0.0029622799564, Final residual = 0.00024228847035, No Iterations 4
smoothSolver:  Solving for Uz, Initial residual = 0.00639181588211, Final residual = 0.000550051210789, No Iterations 4
GAMG:  Solving for p, Initial residual = 0.0238999510303, Final residual = 0.000456161369011, No Iterations 5
time step continuity errors : sum local = 0.121242975465, global = 0.00114168375891, cumulative = -3.44411475973
ExecutionTime = 4.44 s  ClockTime = 5 s

Time = 59

smoothSolver:  Solving for Ux, Initial residual = 0.000621354270974, Final residual = 4.88725889453e-05, No Iterations 4
smoothSolver:  Solving for Uy, Initial residual = 0.00301941991897, Final residual = 0.000250476247655, No Iterations 4
smoothSolver:  Solving for Uz, Initial residual = 0.00647250528691, Final residual = 0.000558656283051, No Iterations 4
GAMG:  Solving for p, Initial residual = 0.021308983134, Final residual = 0.000454209303079, No Iterations 5
time step continuity errors : sum local = 0.118297067192, global = 0.000849181537143, cumulative = -3.44326557819
ExecutionTime = 4.52 s  ClockTime = 5 s

Time = 60

smoothSolver:  Solving for Ux, Initial residual = 0.000614306002679, Final residual = 4.83730947032e-05, No Iterations 4
smoothSolver:  Solving for Uy, Initial residual = 0.00292918158606, Final residual = 0.000244923920451, No Iterations 4
smoothSolver:  Solving for Uz, Initial residual = 0.00648353039865, Final residual = 0.000559835798524, No Iterations 4
GAMG:  Solving for p, Initial residual = 0.0193963838428, Final residual = 0.000386985187871, No Iterations 5
time step continuity errors : sum local = 0.0979084259139, global = 0.00118163683817, cumulative = -3.44208394135
ExecutionTime = 4.61 s  ClockTime = 5 s

Time = 61

smoothSolver:  Solving for Ux, Initial residual = 0.000606943047831, Final residual = 4.78698521573e-05, No Iterations 4
smoothSolver:  Solving for Uy, Initial residual = 0.00284367252429, Final residual = 0.00023966354245, No Iterations 4
smoothSolver:  Solving for Uz, Initial residual = 0.00643371454547, Final residual = 0.000555512795059, No Iterations 4
GAMG:  Solving for p, Initial residual = 0.0178338422511, Final residual = 0.000728401262396, No Iterations 4
time step continuity errors : sum local = 0.180917073994, global = 0.00116967637412, cumulative = -3.44091426498
ExecutionTime = 4.7 s  ClockTime = 5 s

Time = 62

smoothSolver:  Solving for Ux, Initial residual = 0.000599145032059, Final residual = 4.7362452565e-05, No Iterations 4
smoothSolver:  Solving for Uy, Initial residual = 0.00265603015296, Final residual = 0.000223640812577, No Iterations 4
smoothSolver:  Solving for Uz, Initial residual = 0.00634293296606, Final residual = 0.000547625437747, No Iterations 4
GAMG:  Solving for p, Initial residual = 0.0168391737985, Final residual = 0.000536843259032, No Iterations 5
time step continuity errors : sum local = 0.131363616816, global = 0.000513784760533, cumulative = -3.44040048022
ExecutionTime = 4.79 s  ClockTime = 5 s

Time = 63

smoothSolver:  Solving for Ux, Initial residual = 0.000592545329496, Final residual = 4.69302672224e-05, No Iterations 4
smoothSolver:  Solving for Uy, Initial residual = 0.0024750072102, Final residual = 0.000207315093084, No Iterations 4
smoothSolver:  Solving for Uz, Initial residual = 0.00621890731952, Final residual = 0.000536509677774, No Iterations 4
GAMG:  Solving for p, Initial residual = 0.0168453588222, Final residual = 0.000519766437066, No Iterations 5
time step continuity errors : sum local = 0.124159891537, global = 0.000541498015162, cumulative = -3.4398589822
ExecutionTime = 4.87 s  ClockTime = 5 s

Time = 64

smoothSolver:  Solving for Ux, Initial residual = 0.000586908923158, Final residual = 4.65449366462e-05, No Iterations 4
smoothSolver:  Solving for Uy, Initial residual = 0.00226142751048, Final residual = 0.000187827588284, No Iterations 4
smoothSolver:  Solving for Uz, Initial residual = 0.00610716514119, Final residual = 0.000526236070802, No Iterations 4
GAMG:  Solving for p, Initial residual = 0.0166829683223, Final residual = 0.000593648147429, No Iterations 5
time step continuity errors : sum local = 0.139124708039, global = 0.000447388328125, cumulative = -3.43941159388
ExecutionTime = 4.96 s  ClockTime = 5 s

Time = 65

smoothSolver:  Solving for Ux, Initial residual = 0.000582021811751, Final residual = 4.61595334083e-05, No Iterations 4
smoothSolver:  Solving for Uy, Initial residual = 0.00213721760544, Final residual = 0.000176490703768, No Iterations 4
smoothSolver:  Solving for Uz, Initial residual = 0.00601441302189, Final residual = 0.000518023097161, No Iterations 4
GAMG:  Solving for p, Initial residual = 0.0161061232494, Final residual = 0.000513792576491, No Iterations 5
time step continuity errors : sum local = 0.118103173984, global = 0.00048816892545, cumulative = -3.43892342495
ExecutionTime = 5.05 s  ClockTime = 5 s

Time = 66

smoothSolver:  Solving for Ux, Initial residual = 0.000576756115744, Final residual = 4.57484307983e-05, No Iterations 4
smoothSolver:  Solving for Uy, Initial residual = 0.00204850307312, Final residual = 0.000169063414579, No Iterations 4
smoothSolver:  Solving for Uz, Initial residual = 0.00596922651735, Final residual = 0.000514554999859, No Iterations 4
GAMG:  Solving for p, Initial residual = 0.0152154391944, Final residual = 0.000469226213973, No Iterations 5
time step continuity errors : sum local = 0.105835778024, global = 0.000416647271181, cumulative = -3.43850677768
ExecutionTime = 5.14 s  ClockTime = 6 s

Time = 67

smoothSolver:  Solving for Ux, Initial residual = 0.000571348011103, Final residual = 4.53157738275e-05, No Iterations 4
smoothSolver:  Solving for Uy, Initial residual = 0.00204591168516, Final residual = 0.000171190628845, No Iterations 4
smoothSolver:  Solving for Uz, Initial residual = 0.00597236806269, Final residual = 0.000516329962764, No Iterations 4
GAMG:  Solving for p, Initial residual = 0.0140585647252, Final residual = 0.000397048722124, No Iterations 5
time step continuity errors : sum local = 0.088056270769, global = 0.000356896568793, cumulative = -3.43814988111
ExecutionTime = 5.22 s  ClockTime = 6 s

Time = 68

smoothSolver:  Solving for Ux, Initial residual = 0.000565376630917, Final residual = 4.48689016166e-05, No Iterations 4
smoothSolver:  Solving for Uy, Initial residual = 0.00206024525633, Final residual = 0.000173984283664, No Iterations 4
smoothSolver:  Solving for Uz, Initial residual = 0.00599829520293, Final residual = 0.000520136043389, No Iterations 4
GAMG:  Solving for p, Initial residual = 0.0129167789051, Final residual = 0.000229319023417, No Iterations 5
time step continuity errors : sum local = 0.0499584085009, global = 0.00025110829151, cumulative = -3.43789877282
ExecutionTime = 5.31 s  ClockTime = 6 s

Time = 69

smoothSolver:  Solving for Ux, Initial residual = 0.000560413028088, Final residual = 4.44087760539e-05, No Iterations 4
smoothSolver:  Solving for Uy, Initial residual = 0.0021145609851, Final residual = 0.000179763671184, No Iterations 4
smoothSolver:  Solving for Uz, Initial residual = 0.00600812897958, Final residual = 0.000522037842144, No Iterations 4
GAMG:  Solving for p, Initial residual = 0.0117114311734, Final residual = 0.000259411319041, No Iterations 5
time step continuity errors : sum local = 0.0555808211148, global = 0.000441500492921, cumulative = -3.43745727233
ExecutionTime = 5.39 s  ClockTime = 6 s

Time = 70

smoothSolver:  Solving for Ux, Initial residual = 0.000553256898287, Final residual = 4.39016748987e-05, No Iterations 4
smoothSolver:  Solving for Uy, Initial residual = 0.00213965276618, Final residual = 0.000182236752807, No Iterations 4
smoothSolver:  Solving for Uz, Initial residual = 0.00599645695844, Final residual = 0.000521469916834, No Iterations 4
GAMG:  Solving for p, Initial residual = 0.0106791013036, Final residual = 0.000224190620075, No Iterations 5
time step continuity errors : sum local = 0.0472252797911, global = 0.000981421602794, cumulative = -3.43647585072
ExecutionTime = 5.48 s  ClockTime = 6 s

Time = 71

smoothSolver:  Solving for Ux, Initial residual = 0.000546969984655, Final residual = 4.34121282345e-05, No Iterations 4
smoothSolver:  Solving for Uy, Initial residual = 0.0021028917198, Final residual = 0.00017855253733, No Iterations 4
smoothSolver:  Solving for Uz, Initial residual = 0.00596459636435, Final residual = 0.000519236106547, No Iterations 4
GAMG:  Solving for p, Initial residual = 0.00984453151032, Final residual = 0.000400005630914, No Iterations 5
time step continuity errors : sum local = 0.0832122049397, global = 0.000508513654356, cumulative = -3.43596733707
ExecutionTime = 5.56 s  ClockTime = 6 s

Time = 72

smoothSolver:  Solving for Ux, Initial residual = 0.000541755741791, Final residual = 4.29015786157e-05, No Iterations 4
smoothSolver:  Solving for Uy, Initial residual = 0.00201457978877, Final residual = 0.000170576794266, No Iterations 4
smoothSolver:  Solving for Uz, Initial residual = 0.00591276782137, Final residual = 0.000515110929393, No Iterations 4
GAMG:  Solving for p, Initial residual = 0.00962654121402, Final residual = 0.000249971983108, No Iterations 5
time step continuity errors : sum local = 0.0510475872762, global = 0.000660062408139, cumulative = -3.43530727466
ExecutionTime = 5.64 s  ClockTime = 6 s

Time = 73

smoothSolver:  Solving for Ux, Initial residual = 0.000537889571581, Final residual = 4.23991886067e-05, No Iterations 4
smoothSolver:  Solving for Uy, Initial residual = 0.00194229789673, Final residual = 0.000164069642799, No Iterations 4
smoothSolver:  Solving for Uz, Initial residual = 0.00586063889942, Final residual = 0.000510846575931, No Iterations 4
GAMG:  Solving for p, Initial residual = 0.00932190330883, Final residual = 0.000256202512619, No Iterations 5
time step continuity errors : sum local = 0.0517596541951, global = 0.00036315760895, cumulative = -3.43494411705
ExecutionTime = 5.73 s  ClockTime = 6 s

Time = 74

smoothSolver:  Solving for Ux, Initial residual = 0.000530023220575, Final residual = 4.18733159688e-05, No Iterations 4
smoothSolver:  Solving for Uy, Initial residual = 0.00186426421513, Final residual = 0.000157736228355, No Iterations 4
smoothSolver:  Solving for Uz, Initial residual = 0.00582292134293, Final residual = 0.0005080328665, No Iterations 4
GAMG:  Solving for p, Initial residual = 0.00902091893706, Final residual = 0.00031619166583, No Iterations 5
time step continuity errors : sum local = 0.0630668848698, global = 0.000435414070846, cumulative = -3.43450870298
ExecutionTime = 5.82 s  ClockTime = 6 s

Time = 75

smoothSolver:  Solving for Ux, Initial residual = 0.000522750891816, Final residual = 4.13575062292e-05, No Iterations 4
smoothSolver:  Solving for Uy, Initial residual = 0.00179742703025, Final residual = 0.000152107226118, No Iterations 4
smoothSolver:  Solving for Uz, Initial residual = 0.00580249810131, Final residual = 0.000506628949276, No Iterations 4
GAMG:  Solving for p, Initial residual = 0.00873486969104, Final residual = 0.000262644880733, No Iterations 5
time step continuity errors : sum local = 0.0513853311325, global = 0.000337102199874, cumulative = -3.43417160078
ExecutionTime = 5.9 s  ClockTime = 6 s

Time = 76

smoothSolver:  Solving for Ux, Initial residual = 0.000516148363415, Final residual = 4.08249405083e-05, No Iterations 4
smoothSolver:  Solving for Uy, Initial residual = 0.00176860043282, Final residual = 0.000149686190535, No Iterations 4
smoothSolver:  Solving for Uz, Initial residual = 0.00580672878632, Final residual = 0.000507450587225, No Iterations 4
GAMG:  Solving for p, Initial residual = 0.00819705839699, Final residual = 0.000254673577235, No Iterations 5
time step continuity errors : sum local = 0.049059948695, global = 0.000308848768059, cumulative = -3.43386275201
ExecutionTime = 5.99 s  ClockTime = 6 s

Time = 77

smoothSolver:  Solving for Ux, Initial residual = 0.0005104312078, Final residual = 4.03265387355e-05, No Iterations 4
smoothSolver:  Solving for Uy, Initial residual = 0.00174816688121, Final residual = 0.000148687889622, No Iterations 4
smoothSolver:  Solving for Uz, Initial residual = 0.0058131564642, Final residual = 0.000508401872577, No Iterations 4
GAMG:  Solving for p, Initial residual = 0.00763743773696, Final residual = 0.000305256423735, No Iterations 4
time step continuity errors : sum local = 0.0578481074221, global = 0.000458796854646, cumulative = -3.43340395516
ExecutionTime = 6.08 s  ClockTime = 6 s

Time = 78

smoothSolver:  Solving for Ux, Initial residual = 0.000504341494364, Final residual = 3.97940053754e-05, No Iterations 4
smoothSolver:  Solving for Uy, Initial residual = 0.00174964293615, Final residual = 0.000149184391574, No Iterations 4
smoothSolver:  Solving for Uz, Initial residual = 0.00582861662647, Final residual = 0.000509805795878, No Iterations 4
GAMG:  Solving for p, Initial residual = 0.00696628403362, Final residual = 0.000270924818506, No Iterations 4
time step continuity errors : sum local = 0.0509143224139, global = 8.80064434569e-05, cumulative = -3.43331594871
ExecutionTime = 6.17 s  ClockTime = 7 s

Time = 79

smoothSolver:  Solving for Ux, Initial residual = 0.0004969982169, Final residual = 3.93158693331e-05, No Iterations 4
smoothSolver:  Solving for Uy, Initial residual = 0.00170105229607, Final residual = 0.000145713471734, No Iterations 4
smoothSolver:  Solving for Uz, Initial residual = 0.00581778588407, Final residual = 0.000509302596881, No Iterations 4
GAMG:  Solving for p, Initial residual = 0.00647591822182, Final residual = 0.000315619201536, No Iterations 4
time step continuity errors : sum local = 0.0581540621578, global = 0.0003736959367, cumulative = -3.43294225278
ExecutionTime = 6.25 s  ClockTime = 7 s

Time = 80

smoothSolver:  Solving for Ux, Initial residual = 0.000491977141806, Final residual = 3.88287969922e-05, No Iterations 4
smoothSolver:  Solving for Uy, Initial residual = 0.00167589928628, Final residual = 0.000143629727216, No Iterations 4
smoothSolver:  Solving for Uz, Initial residual = 0.00580220056348, Final residual = 0.000508477725314, No Iterations 4
GAMG:  Solving for p, Initial residual = 0.00592405697356, Final residual = 0.000139309562073, No Iterations 6
time step continuity errors : sum local = 0.0253653429906, global = 0.000103710548123, cumulative = -3.43283854223
ExecutionTime = 6.34 s  ClockTime = 7 s

Time = 81

smoothSolver:  Solving for Ux, Initial residual = 0.000485524871471, Final residual = 3.83584580099e-05, No Iterations 4
smoothSolver:  Solving for Uy, Initial residual = 0.001630495734, Final residual = 0.000139508180911, No Iterations 4
smoothSolver:  Solving for Uz, Initial residual = 0.00577550054306, Final residual = 0.000506468962083, No Iterations 4
GAMG:  Solving for p, Initial residual = 0.0057094191588, Final residual = 0.000222737162224, No Iterations 5
time step continuity errors : sum local = 0.0397215646228, global = 0.000518595828902, cumulative = -3.4323199464
ExecutionTime = 6.43 s  ClockTime = 7 s

Time = 82

smoothSolver:  Solving for Ux, Initial residual = 0.000480298424738, Final residual = 3.78616587207e-05, No Iterations 4
smoothSolver:  Solving for Uy, Initial residual = 0.00158979483375, Final residual = 0.000135774066654, No Iterations 4
smoothSolver:  Solving for Uz, Initial residual = 0.00576097540239, Final residual = 0.000505089688549, No Iterations 4
GAMG:  Solving for p, Initial residual = 0.00556067219041, Final residual = 0.000187504847766, No Iterations 5
time step continuity errors : sum local = 0.0329475239451, global = 0.000202634725671, cumulative = -3.43211731168
ExecutionTime = 6.52 s  ClockTime = 7 s

Time = 83

smoothSolver:  Solving for Ux, Initial residual = 0.000474493155098, Final residual = 3.74293553646e-05, No Iterations 4
smoothSolver:  Solving for Uy, Initial residual = 0.00156703432648, Final residual = 0.000133460955048, No Iterations 4
smoothSolver:  Solving for Uz, Initial residual = 0.00574629667706, Final residual = 0.000503920346758, No Iterations 4
GAMG:  Solving for p, Initial residual = 0.00535900976017, Final residual = 0.000182324808817, No Iterations 5
time step continuity errors : sum local = 0.0316566345104, global = 0.000229141861725, cumulative = -3.43188816981
ExecutionTime = 6.61 s  ClockTime = 7 s

Time = 84

smoothSolver:  Solving for Ux, Initial residual = 0.000468076190628, Final residual = 3.69822239165e-05, No Iterations 4
smoothSolver:  Solving for Uy, Initial residual = 0.00154780122039, Final residual = 0.000131437917625, No Iterations 4
smoothSolver:  Solving for Uz, Initial residual = 0.00573885929671, Final residual = 0.000503430574297, No Iterations 4
GAMG:  Solving for p, Initial residual = 0.00519118244497, Final residual = 0.00017991721337, No Iterations 5
time step continuity errors : sum local = 0.0308002295157, global = 0.000234684475404, cumulative = -3.43165348534
ExecutionTime = 6.69 s  ClockTime = 7 s

Time = 85

smoothSolver:  Solving for Ux, Initial residual = 0.000462237183962, Final residual = 3.65723833024e-05, No Iterations 4
smoothSolver:  Solving for Uy, Initial residual = 0.00154284366695, Final residual = 0.000131253701637, No Iterations 4
smoothSolver:  Solving for Uz, Initial residual = 0.00573610011172, Final residual = 0.000503619555271, No Iterations 4
GAMG:  Solving for p, Initial residual = 0.00496719306517, Final residual = 0.000120270908161, No Iterations 5
time step continuity errors : sum local = 0.0203137640399, global = 0.0001705563647, cumulative = -3.43148292897
ExecutionTime = 6.78 s  ClockTime = 7 s

Time = 86

smoothSolver:  Solving for Ux, Initial residual = 0.000457318098181, Final residual = 3.61504661102e-05, No Iterations 4
smoothSolver:  Solving for Uy, Initial residual = 0.00153738835543, Final residual = 0.000130863251105, No Iterations 4
smoothSolver:  Solving for Uz, Initial residual = 0.00574280294062, Final residual = 0.000504537367208, No Iterations 4
GAMG:  Solving for p, Initial residual = 0.00468216168323, Final residual = 0.000230502238353, No Iterations 4
time step continuity errors : sum local = 0.0383586033199, global = 0.000157173723918, cumulative = -3.43132575525
ExecutionTime = 6.86 s  ClockTime = 7 s

Time = 87

smoothSolver:  Solving for Ux, Initial residual = 0.000452461058568, Final residual = 3.57463481941e-05, No Iterations 4
smoothSolver:  Solving for Uy, Initial residual = 0.00153666567948, Final residual = 0.000131250185855, No Iterations 4
smoothSolver:  Solving for Uz, Initial residual = 0.00575114608671, Final residual = 0.000505638804726, No Iterations 4
GAMG:  Solving for p, Initial residual = 0.00437956221554, Final residual = 0.000194763706516, No Iterations 4
time step continuity errors : sum local = 0.0319644038219, global = 9.05585266327e-05, cumulative = -3.43123519672
ExecutionTime = 6.94 s  ClockTime = 7 s

Time = 88

smoothSolver:  Solving for Ux, Initial residual = 0.000448610606405, Final residual = 3.53572109818e-05, No Iterations 4
smoothSolver:  Solving for Uy, Initial residual = 0.00153076966427, Final residual = 0.000130944045033, No Iterations 4
smoothSolver:  Solving for Uz, Initial residual = 0.00575742710679, Final residual = 0.000506611713311, No Iterations 4
GAMG:  Solving for p, Initial residual = 0.00405255586564, Final residual = 0.000196483915762, No Iterations 4
time step continuity errors : sum local = 0.0317757749716, global = 0.000102251717492, cumulative = -3.43113294501
ExecutionTime = 7.03 s  ClockTime = 7 s

Time = 89

smoothSolver:  Solving for Ux, Initial residual = 0.000443982897604, Final residual = 3.49649628121e-05, No Iterations 4
smoothSolver:  Solving for Uy, Initial residual = 0.00152511762035, Final residual = 0.000130662724961, No Iterations 4
smoothSolver:  Solving for Uz, Initial residual = 0.00576376477352, Final residual = 0.000507590356195, No Iterations 4
GAMG:  Solving for p, Initial residual = 0.00372906626412, Final residual = 9.34410092581e-05, No Iterations 6
time step continuity errors : sum local = 0.0149169642414, global = 2.47996761495e-05, cumulative = -3.43110814533
ExecutionTime = 7.13 s  ClockTime = 8 s

Time = 90

smoothSolver:  Solving for Ux, Initial residual = 0.000438857386564, Final residual = 3.45717419788e-05, No Iterations 4
smoothSolver:  Solving for Uy, Initial residual = 0.00151387746945, Final residual = 0.000129541078654, No Iterations 4
smoothSolver:  Solving for Uz, Initial residual = 0.00576988467946, Final residual = 0.000508426251643, No Iterations 4
GAMG:  Solving for p, Initial residual = 0.00349420943641, Final residual = 0.000174621353036, No Iterations 4
time step continuity errors : sum local = 0.0274469152323, global = 0.000186618838515, cumulative = -3.43092152649
ExecutionTime = 7.23 s  ClockTime = 8 s

Time = 91

smoothSolver:  Solving for Ux, Initial residual = 0.000433660741733, Final residual = 3.41632237079e-05, No Iterations 4
smoothSolver:  Solving for Uy, Initial residual = 0.00150473677642, Final residual = 0.000128877316331, No Iterations 4
smoothSolver:  Solving for Uz, Initial residual = 0.0057829587061, Final residual = 0.000509876346295, No Iterations 4
GAMG:  Solving for p, Initial residual = 0.00329665093127, Final residual = 8.67824492511e-05, No Iterations 6
time step continuity errors : sum local = 0.013558227218, global = 0.000286880688014, cumulative = -3.4306346458
ExecutionTime = 7.31 s  ClockTime = 8 s

Time = 92

smoothSolver:  Solving for Ux, Initial residual = 0.000428889659663, Final residual = 3.37727676118e-05, No Iterations 4
smoothSolver:  Solving for Uy, Initial residual = 0.00146972663486, Final residual = 0.000126139983164, No Iterations 4
smoothSolver:  Solving for Uz, Initial residual = 0.0057900315912, Final residual = 0.000510805629805, No Iterations 4
GAMG:  Solving for p, Initial residual = 0.00326871077941, Final residual = 8.60738877005e-05, No Iterations 6
time step continuity errors : sum local = 0.0132292313469, global = 3.31230779558e-05, cumulative = -3.43060152272
ExecutionTime = 7.39 s  ClockTime = 8 s

Time = 93

smoothSolver:  Solving for Ux, Initial residual = 0.00042412752347, Final residual = 3.33180005528e-05, No Iterations 4
smoothSolver:  Solving for Uy, Initial residual = 0.00145126933627, Final residual = 0.000124515613112, No Iterations 4
smoothSolver:  Solving for Uz, Initial residual = 0.00579872465068, Final residual = 0.000511780363682, No Iterations 4
GAMG:  Solving for p, Initial residual = 0.00314795767907, Final residual = 7.97993589761e-05, No Iterations 6
time step continuity errors : sum local = 0.012076861646, global = 2.54326175409e-05, cumulative = -3.43057609011
ExecutionTime = 7.48 s  ClockTime = 8 s

Time = 94

smoothSolver:  Solving for Ux, Initial residual = 0.000418887496279, Final residual = 3.29299351797e-05, No Iterations 4
smoothSolver:  Solving for Uy, Initial residual = 0.00143678440652, Final residual = 0.000123433720018, No Iterations 4
smoothSolver:  Solving for Uz, Initial residual = 0.00580965314058, Final residual = 0.000513036772433, No Iterations 4
GAMG:  Solving for p, Initial residual = 0.00299381566022, Final residual = 0.000121708246389, No Iterations 4
time step continuity errors : sum local = 0.0181734041379, global = 4.49961017305e-05, cumulative = -3.43053109401
ExecutionTime = 7.56 s  ClockTime = 8 s

Time = 95

smoothSolver:  Solving for Ux, Initial residual = 0.000416014529787, Final residual = 3.25952453801e-05, No Iterations 4
smoothSolver:  Solving for Uy, Initial residual = 0.00142648095417, Final residual = 0.000122729602837, No Iterations 4
smoothSolver:  Solving for Uz, Initial residual = 0.00582463351468, Final residual = 0.000514665854273, No Iterations 4
GAMG:  Solving for p, Initial residual = 0.00278042480457, Final residual = 8.94981418524e-05, No Iterations 6
time step continuity errors : sum local = 0.0132295443682, global = -5.91217502575e-05, cumulative = -3.43059021576
ExecutionTime = 7.65 s  ClockTime = 8 s

Time = 96

smoothSolver:  Solving for Ux, Initial residual = 0.000412531453889, Final residual = 3.23223197086e-05, No Iterations 4
smoothSolver:  Solving for Uy, Initial residual = 0.00140536117024, Final residual = 0.000120875349418, No Iterations 4
smoothSolver:  Solving for Uz, Initial residual = 0.00583584896028, Final residual = 0.000515891412994, No Iterations 4
GAMG:  Solving for p, Initial residual = 0.00265251134642, Final residual = 0.000122644379759, No Iterations 4
time step continuity errors : sum local = 0.0178344789081, global = 0.000124237953422, cumulative = -3.4304659778
ExecutionTime = 7.73 s  ClockTime = 8 s

Time = 97

smoothSolver:  Solving for Ux, Initial residual = 0.000409114210898, Final residual = 3.20449087927e-05, No Iterations 4
smoothSolver:  Solving for Uy, Initial residual = 0.00140240032349, Final residual = 0.000121000533803, No Iterations 4
smoothSolver:  Solving for Uz, Initial residual = 0.00584610884784, Final residual = 0.000517219557674, No Iterations 4
GAMG:  Solving for p, Initial residual = 0.00242697976125, Final residual = 9.57961549648e-05, No Iterations 5
time step continuity errors : sum local = 0.0137692103086, global = 8.34350887483e-05, cumulative = -3.43038254271
ExecutionTime = 7.82 s  ClockTime = 8 s

Time = 98

smoothSolver:  Solving for Ux, Initial residual = 0.000405684259325, Final residual = 3.1722865023e-05, No Iterations 4
smoothSolver:  Solving for Uy, Initial residual = 0.00138551367296, Final residual = 0.000119472779534, No Iterations 4
smoothSolver:  Solving for Uz, Initial residual = 0.00585493550307, Final residual = 0.000518339974628, No Iterations 4
GAMG:  Solving for p, Initial residual = 0.00228668913576, Final residual = 6.61127124447e-05, No Iterations 6
time step continuity errors : sum local = 0.00937067102614, global = 0.000120411227028, cumulative = -3.43026213149
ExecutionTime = 7.91 s  ClockTime = 8 s

Time = 99

smoothSolver:  Solving for Ux, Initial residual = 0.000402012382458, Final residual = 3.13980307273e-05, No Iterations 4
smoothSolver:  Solving for Uy, Initial residual = 0.00137575439134, Final residual = 0.000118766382399, No Iterations 4
smoothSolver:  Solving for Uz, Initial residual = 0.00585966893806, Final residual = 0.00051919678834, No Iterations 4
GAMG:  Solving for p, Initial residual = 0.00218153492676, Final residual = 5.90363719612e-05, No Iterations 6
time step continuity errors : sum local = 0.00825338658881, global = 9.10036384166e-05, cumulative = -3.43017112785
ExecutionTime = 7.99 s  ClockTime = 8 s

Time = 100

smoothSolver:  Solving for Ux, Initial residual = 0.000398173549409, Final residual = 3.10429916951e-05, No Iterations 4
smoothSolver:  Solving for Uy, Initial residual = 0.00136257928476, Final residual = 0.000117652243243, No Iterations 4
smoothSolver:  Solving for Uz, Initial residual = 0.00586544842983, Final residual = 0.000520109119407, No Iterations 4
GAMG:  Solving for p, Initial residual = 0.00210279912569, Final residual = 7.06388257098e-05, No Iterations 6
time step continuity errors : sum local = 0.0097471758458, global = 7.82612291978e-05, cumulative = -3.43009286662
ExecutionTime = 8.08 s  ClockTime = 8 s

Time = 101

smoothSolver:  Solving for Ux, Initial residual = 0.000393928305341, Final residual = 3.0661855578e-05, No Iterations 4
smoothSolver:  Solving for Uy, Initial residual = 0.00135060783069, Final residual = 0.000116670633842, No Iterations 4
smoothSolver:  Solving for Uz, Initial residual = 0.0058739962927, Final residual = 0.00052119029657, No Iterations 4
GAMG:  Solving for p, Initial residual = 0.00204441396967, Final residual = 6.75682350241e-05, No Iterations 6
time step continuity errors : sum local = 0.00921336455225, global = 9.28726943012e-05, cumulative = -3.42999999392
ExecutionTime = 8.21 s  ClockTime = 9 s

Time = 102

smoothSolver:  Solving for Ux, Initial residual = 0.000390351537897, Final residual = 3.03031864671e-05, No Iterations 4
smoothSolver:  Solving for Uy, Initial residual = 0.00133452096608, Final residual = 0.000115387119968, No Iterations 4
smoothSolver:  Solving for Uz, Initial residual = 0.00588019090325, Final residual = 0.000522202041052, No Iterations 4
GAMG:  Solving for p, Initial residual = 0.00202527578802, Final residual = 7.99571918537e-05, No Iterations 6
time step continuity errors : sum local = 0.0107826016533, global = -2.33403894036e-05, cumulative = -3.43002333431
ExecutionTime = 8.31 s  ClockTime = 9 s

Time = 103

smoothSolver:  Solving for Ux, Initial residual = 0.000387797287472, Final residual = 2.99349908784e-05, No Iterations 4
smoothSolver:  Solving for Uy, Initial residual = 0.00131232460856, Final residual = 0.000113653705727, No Iterations 4
smoothSolver:  Solving for Uz, Initial residual = 0.00588545464329, Final residual = 0.000523239670456, No Iterations 4
GAMG:  Solving for p, Initial residual = 0.00201728803122, Final residual = 6.73584004161e-05, No Iterations 6
time step continuity errors : sum local = 0.00896516386163, global = -8.43103984932e-06, cumulative = -3.43003176535
ExecutionTime = 8.4 s  ClockTime = 9 s

Time = 104

smoothSolver:  Solving for Ux, Initial residual = 0.000383970499912, Final residual = 2.94924431375e-05, No Iterations 4
smoothSolver:  Solving for Uy, Initial residual = 0.00129064579547, Final residual = 0.000111850138068, No Iterations 4
smoothSolver:  Solving for Uz, Initial residual = 0.00589713923989, Final residual = 0.000524656206582, No Iterations 4
GAMG:  Solving for p, Initial residual = 0.00196070349622, Final residual = 7.33703836064e-05, No Iterations 6
time step continuity errors : sum local = 0.00964296649387, global = -2.23929091352e-05, cumulative = -3.43005415826
ExecutionTime = 8.48 s  ClockTime = 9 s

Time = 105

smoothSolver:  Solving for Ux, Initial residual = 0.000379045408528, Final residual = 2.90193875388e-05, No Iterations 4
smoothSolver:  Solving for Uy, Initial residual = 0.00128143172488, Final residual = 0.000111082699565, No Iterations 4
smoothSolver:  Solving for Uz, Initial residual = 0.00591022111554, Final residual = 0.000525997913168, No Iterations 4
GAMG:  Solving for p, Initial residual = 0.00185407090952, Final residual = 5.634101392e-05, No Iterations 6
time step continuity errors : sum local = 0.0073148328277, global = 2.20756347984e-05, cumulative = -3.43003208263
ExecutionTime = 8.58 s  ClockTime = 9 s

Time = 106

smoothSolver:  Solving for Ux, Initial residual = 0.00037369864452, Final residual = 2.85877877898e-05, No Iterations 4
smoothSolver:  Solving for Uy, Initial residual = 0.00127490738548, Final residual = 0.000110697671531, No Iterations 4
smoothSolver:  Solving for Uz, Initial residual = 0.00591061430154, Final residual = 0.000526521104991, No Iterations 4
GAMG:  Solving for p, Initial residual = 0.00175614238726, Final residual = 7.0433961584e-05, No Iterations 5
time step continuity errors : sum local = 0.00903964327609, global = 0.000153097200953, cumulative = -3.42987898543
ExecutionTime = 8.66 s  ClockTime = 9 s

Time = 107

smoothSolver:  Solving for Ux, Initial residual = 0.000369210447272, Final residual = 2.81327377221e-05, No Iterations 4
smoothSolver:  Solving for Uy, Initial residual = 0.00127223816235, Final residual = 0.000110493943294, No Iterations 4
smoothSolver:  Solving for Uz, Initial residual = 0.00590364819835, Final residual = 0.000526164111344, No Iterations 4
GAMG:  Solving for p, Initial residual = 0.0016719385569, Final residual = 7.41872639376e-05, No Iterations 5
time step continuity errors : sum local = 0.00942384680593, global = -1.97913026855e-05, cumulative = -3.42989877673
ExecutionTime = 8.75 s  ClockTime = 9 s

Time = 108

smoothSolver:  Solving for Ux, Initial residual = 0.000366215157574, Final residual = 2.77271944678e-05, No Iterations 4
smoothSolver:  Solving for Uy, Initial residual = 0.00126216169122, Final residual = 0.00010960698481, No Iterations 4
smoothSolver:  Solving for Uz, Initial residual = 0.00585411641692, Final residual = 0.000521951557361, No Iterations 4
GAMG:  Solving for p, Initial residual = 0.00166935433542, Final residual = 6.66002724696e-05, No Iterations 6
time step continuity errors : sum local = 0.00834484085955, global = 5.31403316732e-05, cumulative = -3.4298456364
ExecutionTime = 8.84 s  ClockTime = 9 s

Time = 109

smoothSolver:  Solving for Ux, Initial residual = 0.000363198225422, Final residual = 2.73424168654e-05, No Iterations 4
smoothSolver:  Solving for Uy, Initial residual = 0.00125370940482, Final residual = 0.000108716970411, No Iterations 4
smoothSolver:  Solving for Uz, Initial residual = 0.00578027371798, Final residual = 0.000515383163106, No Iterations 4
GAMG:  Solving for p, Initial residual = 0.00165992507081, Final residual = 6.29398870071e-05, No Iterations 6
time step continuity errors : sum local = 0.00778711773506, global = 5.44536457011e-05, cumulative = -3.42979118275
ExecutionTime = 8.92 s  ClockTime = 9 s

Time = 110

smoothSolver:  Solving for Ux, Initial residual = 0.000358882065335, Final residual = 2.69617223001e-05, No Iterations 4
smoothSolver:  Solving for Uy, Initial residual = 0.00124556540941, Final residual = 0.000107874460507, No Iterations 4
smoothSolver:  Solving for Uz, Initial residual = 0.00570584532521, Final residual = 0.000508952422258, No Iterations 4
GAMG:  Solving for p, Initial residual = 0.00163147449026, Final residual = 5.29865411818e-05, No Iterations 6
time step continuity errors : sum local = 0.00647473778311, global = 5.72938383926e-05, cumulative = -3.42973388891
ExecutionTime = 9.01 s  ClockTime = 9 s

Time = 111

smoothSolver:  Solving for Ux, Initial residual = 0.00035420527113, Final residual = 2.65731962635e-05, No Iterations 4
smoothSolver:  Solving for Uy, Initial residual = 0.00123503592923, Final residual = 0.000106919777784, No Iterations 4
smoothSolver:  Solving for Uz, Initial residual = 0.00562739089689, Final residual = 0.000502219168518, No Iterations 4
GAMG:  Solving for p, Initial residual = 0.00162535413277, Final residual = 5.54609974027e-05, No Iterations 6
time step continuity errors : sum local = 0.00669563496203, global = 3.65244493694e-05, cumulative = -3.42969736447
ExecutionTime = 9.09 s  ClockTime = 9 s

Time = 112

smoothSolver:  Solving for Ux, Initial residual = 0.000349177106498, Final residual = 2.61417021342e-05, No Iterations 4
smoothSolver:  Solving for Uy, Initial residual = 0.00122293838498, Final residual = 0.000105717049001, No Iterations 4
smoothSolver:  Solving for Uz, Initial residual = 0.0055516727375, Final residual = 0.000495485559618, No Iterations 4
GAMG:  Solving for p, Initial residual = 0.00158785009299, Final residual = 5.68782532012e-05, No Iterations 6
time step continuity errors : sum local = 0.00679073793288, global = 3.07751610591e-05, cumulative = -3.4296665893
ExecutionTime = 9.18 s  ClockTime = 10 s

Time = 113

smoothSolver:  Solving for Ux, Initial residual = 0.000345170876828, Final residual = 2.58115704547e-05, No Iterations 4
smoothSolver:  Solving for Uy, Initial residual = 0.00121288003983, Final residual = 0.000104852638065, No Iterations 4
smoothSolver:  Solving for Uz, Initial residual = 0.00546706816114, Final residual = 0.00048840904502, No Iterations 4
GAMG:  Solving for p, Initial residual = 0.00156023917271, Final residual = 5.26270217986e-05, No Iterations 6
time step continuity errors : sum local = 0.00620743417, global = 4.04488220206e-05, cumulative = -3.42962614048
ExecutionTime = 9.27 s  ClockTime = 10 s

Time = 114

smoothSolver:  Solving for Ux, Initial residual = 0.000341406399571, Final residual = 2.54606790252e-05, No Iterations 4
smoothSolver:  Solving for Uy, Initial residual = 0.00120575180799, Final residual = 0.00010418893745, No Iterations 4
smoothSolver:  Solving for Uz, Initial residual = 0.00538812211253, Final residual = 0.00048158291099, No Iterations 4
GAMG:  Solving for p, Initial residual = 0.00149910148123, Final residual = 6.1220941911e-05, No Iterations 6
time step continuity errors : sum local = 0.00713653416, global = -5.07658028715e-06, cumulative = -3.42963121706
ExecutionTime = 9.36 s  ClockTime = 10 s

Time = 115

smoothSolver:  Solving for Ux, Initial residual = 0.000336942009722, Final residual = 2.51326692216e-05, No Iterations 4
smoothSolver:  Solving for Uy, Initial residual = 0.00119904398361, Final residual = 0.000103625733817, No Iterations 4
smoothSolver:  Solving for Uz, Initial residual = 0.00530911214639, Final residual = 0.000474697232068, No Iterations 4
GAMG:  Solving for p, Initial residual = 0.00145701466241, Final residual = 6.0953268732e-05, No Iterations 6
time step continuity errors : sum local = 0.00702038189815, global = 1.44121630147e-05, cumulative = -3.4296168049
ExecutionTime = 9.44 s  ClockTime = 10 s

Time = 116

smoothSolver:  Solving for Ux, Initial residual = 0.000337867293404, Final residual = 2.49147453811e-05, No Iterations 4
smoothSolver:  Solving for Uy, Initial residual = 0.0011902566177, Final residual = 0.0001029383606, No Iterations 4
smoothSolver:  Solving for Uz, Initial residual = 0.00522243002508, Final residual = 0.000467360084531, No Iterations 4
GAMG:  Solving for p, Initial residual = 0.00145131246649, Final residual = 5.6929581657e-05, No Iterations 6
time step continuity errors : sum local = 0.00647762099966, global = 2.91251530973e-05, cumulative = -3.42958767975
ExecutionTime = 9.53 s  ClockTime = 10 s

Time = 117

smoothSolver:  Solving for Ux, Initial residual = 0.000333670085244, Final residual = 2.45595091296e-05, No Iterations 4
smoothSolver:  Solving for Uy, Initial residual = 0.00118773364269, Final residual = 0.000102626139786, No Iterations 4
smoothSolver:  Solving for Uz, Initial residual = 0.00514287997389, Final residual = 0.000460688551328, No Iterations 4
GAMG:  Solving for p, Initial residual = 0.00144835490397, Final residual = 4.21763922333e-05, No Iterations 8
time step continuity errors : sum local = 0.00474190094375, global = 2.63807719093e-05, cumulative = -3.42956129897
ExecutionTime = 9.61 s  ClockTime = 10 s

Time = 118

smoothSolver:  Solving for Ux, Initial residual = 0.00033375114138, Final residual = 2.42755391437e-05, No Iterations 4
smoothSolver:  Solving for Uy, Initial residual = 0.0011820958094, Final residual = 0.000101953027209, No Iterations 4
smoothSolver:  Solving for Uz, Initial residual = 0.00506130163519, Final residual = 0.000453457019539, No Iterations 4
GAMG:  Solving for p, Initial residual = 0.00147181411213, Final residual = 4.03363271342e-05, No Iterations 6
time step continuity errors : sum local = 0.00447815325407, global = 8.76269413353e-06, cumulative = -3.42955253628
ExecutionTime = 9.71 s  ClockTime = 10 s

Time = 119

smoothSolver:  Solving for Ux, Initial residual = 0.000330852631753, Final residual = 2.39375053494e-05, No Iterations 4
smoothSolver:  Solving for Uy, Initial residual = 0.00118186123385, Final residual = 0.000101782453562, No Iterations 4
smoothSolver:  Solving for Uz, Initial residual = 0.00498827247758, Final residual = 0.000446954060563, No Iterations 4
GAMG:  Solving for p, Initial residual = 0.00148053627626, Final residual = 3.80726443186e-05, No Iterations 6
time step continuity errors : sum local = 0.00417762561093, global = 7.1201085191e-06, cumulative = -3.42954541617
ExecutionTime = 9.79 s  ClockTime = 10 s

Time = 120

smoothSolver:  Solving for Ux, Initial residual = 0.000325104657457, Final residual = 2.36196525327e-05, No Iterations 4
smoothSolver:  Solving for Uy, Initial residual = 0.00117442391492, Final residual = 0.000100908935756, No Iterations 4
smoothSolver:  Solving for Uz, Initial residual = 0.00491361661139, Final residual = 0.000440153129783, No Iterations 4
GAMG:  Solving for p, Initial residual = 0.00145436687739, Final residual = 4.767003005e-05, No Iterations 6
time step continuity errors : sum local = 0.00517057392061, global = 3.51200701984e-05, cumulative = -3.4295102961
ExecutionTime = 9.88 s  ClockTime = 10 s

Time = 121

smoothSolver:  Solving for Ux, Initial residual = 0.000319987082421, Final residual = 2.33482756522e-05, No Iterations 4
smoothSolver:  Solving for Uy, Initial residual = 0.00116713748476, Final residual = 0.00010017231534, No Iterations 4
smoothSolver:  Solving for Uz, Initial residual = 0.00483219078709, Final residual = 0.000433150338044, No Iterations 4
GAMG:  Solving for p, Initial residual = 0.00149204213087, Final residual = 3.78699942093e-05, No Iterations 6
time step continuity errors : sum local = 0.00406031598072, global = 1.47506663834e-05, cumulative = -3.42949554543
ExecutionTime = 9.96 s  ClockTime = 10 s

Time = 122

smoothSolver:  Solving for Ux, Initial residual = 0.000317839892597, Final residual = 2.30526500592e-05, No Iterations 4
smoothSolver:  Solving for Uy, Initial residual = 0.0011616233141, Final residual = 9.96217821254e-05, No Iterations 4
smoothSolver:  Solving for Uz, Initial residual = 0.00475760198309, Final residual = 0.000426427594074, No Iterations 4
GAMG:  Solving for p, Initial residual = 0.00147359561837, Final residual = 5.65821900153e-05, No Iterations 7
time step continuity errors : sum local = 0.00599448497945, global = -1.88464862296e-05, cumulative = -3.42951439192
ExecutionTime = 10.04 s  ClockTime = 10 s

Time = 123

smoothSolver:  Solving for Ux, Initial residual = 0.000314422788932, Final residual = 2.28010510606e-05, No Iterations 4
smoothSolver:  Solving for Uy, Initial residual = 0.00115454895234, Final residual = 9.89976479763e-05, No Iterations 4
smoothSolver:  Solving for Uz, Initial residual = 0.00468127361677, Final residual = 0.000419572783947, No Iterations 4
GAMG:  Solving for p, Initial residual = 0.00146022713015, Final residual = 6.43238738692e-05, No Iterations 5
time step continuity errors : sum local = 0.00672768929007, global = 1.42922264539e-06, cumulative = -3.4295129627
ExecutionTime = 10.13 s  ClockTime = 11 s

Time = 124

smoothSolver:  Solving for Ux, Initial residual = 0.000309972807707, Final residual = 2.25356805473e-05, No Iterations 4
smoothSolver:  Solving for Uy, Initial residual = 0.00115109573158, Final residual = 9.87721254511e-05, No Iterations 4
[...]
smoothSolver:  Solving for Uz, Initial residual = 1.01850945323e-05, Final residual = 5.57773893132e-06, No Iterations 1
GAMG:  Solving for p, Initial residual = 1.82338883818e-06, Final residual = 9.4065401317e-07, No Iterations 1
time step continuity errors : sum local = 9.0734083362e-06, global = -4.14669610582e-08, cumulative = -3.42804529232
ExecutionTime = 178.84 s  ClockTime = 179 s

Time = 2102

smoothSolver:  Solving for Ux, Initial residual = 9.98026322777e-06, Final residual = 9.98026322777e-06, No Iterations 0
smoothSolver:  Solving for Uy, Initial residual = 0.000137611330546, Final residual = 1.25231176084e-05, No Iterations 4
smoothSolver:  Solving for Uz, Initial residual = 1.01740763445e-05, Final residual = 5.57170439805e-06, No Iterations 1
GAMG:  Solving for p, Initial residual = 1.8238985398e-06, Final residual = 9.37190293668e-07, No Iterations 1
time step continuity errors : sum local = 9.03998843261e-06, global = -4.98105308672e-08, cumulative = -3.42804534213
ExecutionTime = 178.92 s  ClockTime = 179 s

Time = 2103

smoothSolver:  Solving for Ux, Initial residual = 9.97949176492e-06, Final residual = 9.97949176492e-06, No Iterations 0
smoothSolver:  Solving for Uy, Initial residual = 0.000137425513977, Final residual = 1.25063330413e-05, No Iterations 4
smoothSolver:  Solving for Uz, Initial residual = 1.0163061688e-05, Final residual = 5.56567194484e-06, No Iterations 1
GAMG:  Solving for p, Initial residual = 1.82372438707e-06, Final residual = 9.34813710631e-07, No Iterations 1
time step continuity errors : sum local = 9.01705536091e-06, global = -5.85742376125e-08, cumulative = -3.42804540071
ExecutionTime = 179 s  ClockTime = 179 s

Time = 2104

smoothSolver:  Solving for Ux, Initial residual = 9.97893834131e-06, Final residual = 9.97893834131e-06, No Iterations 0
smoothSolver:  Solving for Uy, Initial residual = 0.0001372407111, Final residual = 1.2489641135e-05, No Iterations 4
smoothSolver:  Solving for Uz, Initial residual = 1.01520497856e-05, Final residual = 5.55964113075e-06, No Iterations 1
GAMG:  Solving for p, Initial residual = 1.82298953267e-06, Final residual = 9.33454998868e-07, No Iterations 1
time step continuity errors : sum local = 9.00394098568e-06, global = -6.71850442663e-08, cumulative = -3.42804546789
ExecutionTime = 179.08 s  ClockTime = 179 s

Time = 2105

smoothSolver:  Solving for Ux, Initial residual = 9.99460530858e-06, Final residual = 9.99460530858e-06, No Iterations 0
smoothSolver:  Solving for Uy, Initial residual = 0.000137056842547, Final residual = 1.24730330497e-05, No Iterations 4
smoothSolver:  Solving for Uz, Initial residual = 1.01410417801e-05, Final residual = 5.55361294662e-06, No Iterations 1
GAMG:  Solving for p, Initial residual = 1.82186906492e-06, Final residual = 9.33002191719e-07, No Iterations 1
time step continuity errors : sum local = 8.9995654849e-06, global = -7.50090476526e-08, cumulative = -3.4280455429
ExecutionTime = 179.16 s  ClockTime = 180 s

Time = 2106

smoothSolver:  Solving for Ux, Initial residual = 9.99912837514e-06, Final residual = 9.99912837514e-06, No Iterations 0
smoothSolver:  Solving for Uy, Initial residual = 0.000136873775613, Final residual = 1.2456495608e-05, No Iterations 4
smoothSolver:  Solving for Uz, Initial residual = 1.01300405437e-05, Final residual = 5.54758859175e-06, No Iterations 1
GAMG:  Solving for p, Initial residual = 1.82058575651e-06, Final residual = 9.89455140039e-07, No Iterations 1
time step continuity errors : sum local = 9.5440928099e-06, global = -3.59013878049e-08, cumulative = -3.4280455788
ExecutionTime = 179.24 s  ClockTime = 180 s

Time = 2107

smoothSolver:  Solving for Ux, Initial residual = 9.99963025093e-06, Final residual = 9.99963025093e-06, No Iterations 0
smoothSolver:  Solving for Uy, Initial residual = 0.000136700085528, Final residual = 1.24407854429e-05, No Iterations 4
smoothSolver:  Solving for Uz, Initial residual = 1.01190276106e-05, Final residual = 5.54155910254e-06, No Iterations 1
GAMG:  Solving for p, Initial residual = 1.83305731508e-06, Final residual = 8.9117951851e-07, No Iterations 1
time step continuity errors : sum local = 8.59615209902e-06, global = -5.94274408727e-08, cumulative = -3.42804563823
ExecutionTime = 179.32 s  ClockTime = 180 s

Time = 2108

smoothSolver:  Solving for Ux, Initial residual = 9.99863119147e-06, Final residual = 9.99863119147e-06, No Iterations 0
smoothSolver:  Solving for Uy, Initial residual = 0.000136504796324, Final residual = 1.24231820775e-05, No Iterations 4
smoothSolver:  Solving for Uz, Initial residual = 1.01081475421e-05, Final residual = 5.53560190644e-06, No Iterations 1
GAMG:  Solving for p, Initial residual = 1.81141677277e-06, Final residual = 9.67120277208e-07, No Iterations 1
time step continuity errors : sum local = 9.32865331686e-06, global = -3.43259108351e-08, cumulative = -3.42804567256
ExecutionTime = 179.4 s  ClockTime = 180 s

Time = 2109

smoothSolver:  Solving for Ux, Initial residual = 9.99616856771e-06, Final residual = 9.99616856771e-06, No Iterations 0
smoothSolver:  Solving for Uy, Initial residual = 0.000136327748596, Final residual = 1.24071219372e-05, No Iterations 4
smoothSolver:  Solving for Uz, Initial residual = 1.00971857041e-05, Final residual = 5.52960021225e-06, No Iterations 1
GAMG:  Solving for p, Initial residual = 1.82018690113e-06, Final residual = 8.89067382107e-07, No Iterations 1
time step continuity errors : sum local = 8.5757756863e-06, global = -4.67496769149e-08, cumulative = -3.42804571931
ExecutionTime = 179.48 s  ClockTime = 180 s

Time = 2110

smoothSolver:  Solving for Ux, Initial residual = 1.00044951099e-05, Final residual = 5.33099282409e-06, No Iterations 1
smoothSolver:  Solving for Uy, Initial residual = 0.000136135145018, Final residual = 1.23897554764e-05, No Iterations 4
smoothSolver:  Solving for Uz, Initial residual = 1.00863032942e-05, Final residual = 5.52364170909e-06, No Iterations 1
GAMG:  Solving for p, Initial residual = 1.81085277575e-06, Final residual = 9.07303510203e-07, No Iterations 1
time step continuity errors : sum local = 8.75166935686e-06, global = -4.13338183949e-08, cumulative = -3.42804576064
ExecutionTime = 179.56 s  ClockTime = 180 s

Time = 2111

smoothSolver:  Solving for Ux, Initial residual = 9.89421252374e-06, Final residual = 9.89421252374e-06, No Iterations 0
smoothSolver:  Solving for Uy, Initial residual = 0.000135947857415, Final residual = 1.23728016082e-05, No Iterations 4
smoothSolver:  Solving for Uz, Initial residual = 1.00753798507e-05, Final residual = 5.51766036418e-06, No Iterations 1
GAMG:  Solving for p, Initial residual = 1.8218243333e-06, Final residual = 9.38379637581e-07, No Iterations 1
time step continuity errors : sum local = 9.05141426053e-06, global = -5.03092995955e-08, cumulative = -3.42804581095
ExecutionTime = 179.64 s  ClockTime = 180 s

Time = 2112

smoothSolver:  Solving for Ux, Initial residual = 9.95240845838e-06, Final residual = 9.95240845838e-06, No Iterations 0
smoothSolver:  Solving for Uy, Initial residual = 0.00013576762846, Final residual = 1.23565162803e-05, No Iterations 4
smoothSolver:  Solving for Uz, Initial residual = 1.00643811151e-05, Final residual = 5.51163784908e-06, No Iterations 1
GAMG:  Solving for p, Initial residual = 1.81760621051e-06, Final residual = 9.33161327645e-07, No Iterations 1
time step continuity errors : sum local = 9.00107181363e-06, global = -4.86568761358e-08, cumulative = -3.42804585961
ExecutionTime = 179.72 s  ClockTime = 180 s

Time = 2113

smoothSolver:  Solving for Ux, Initial residual = 9.97051605962e-06, Final residual = 9.97051605962e-06, No Iterations 0
smoothSolver:  Solving for Uy, Initial residual = 0.000135587311149, Final residual = 1.2340246246e-05, No Iterations 4
smoothSolver:  Solving for Uz, Initial residual = 1.00533889484e-05, Final residual = 5.50561926276e-06, No Iterations 1
GAMG:  Solving for p, Initial residual = 1.81221524284e-06, Final residual = 9.24946239897e-07, No Iterations 1
time step continuity errors : sum local = 8.92182324044e-06, global = -4.8609994614e-08, cumulative = -3.42804590822
ExecutionTime = 179.8 s  ClockTime = 180 s

Time = 2114

smoothSolver:  Solving for Ux, Initial residual = 9.97941118667e-06, Final residual = 9.97941118667e-06, No Iterations 0
smoothSolver:  Solving for Uy, Initial residual = 0.000135406700402, Final residual = 1.23239334723e-05, No Iterations 4
smoothSolver:  Solving for Uz, Initial residual = 1.00424194588e-05, Final residual = 5.49961317835e-06, No Iterations 1
GAMG:  Solving for p, Initial residual = 1.80684658824e-06, Final residual = 9.17883830144e-07, No Iterations 1
time step continuity errors : sum local = 8.85369333739e-06, global = -4.92199154523e-08, cumulative = -3.42804595744
ExecutionTime = 179.88 s  ClockTime = 180 s

Time = 2115

smoothSolver:  Solving for Ux, Initial residual = 9.98506375213e-06, Final residual = 9.98506375213e-06, No Iterations 0
smoothSolver:  Solving for Uy, Initial residual = 0.000135225541275, Final residual = 1.23075565923e-05, No Iterations 4
smoothSolver:  Solving for Uz, Initial residual = 1.00314786944e-05, Final residual = 5.49362268545e-06, No Iterations 1
GAMG:  Solving for p, Initial residual = 1.80221405079e-06, Final residual = 9.06300959099e-07, No Iterations 1
time step continuity errors : sum local = 8.74196029411e-06, global = -3.76826981794e-08, cumulative = -3.42804599512
ExecutionTime = 179.96 s  ClockTime = 180 s

Time = 2116

smoothSolver:  Solving for Ux, Initial residual = 9.97808738037e-06, Final residual = 9.97808738037e-06, No Iterations 0
smoothSolver:  Solving for Uy, Initial residual = 0.000135040886016, Final residual = 1.2290856921e-05, No Iterations 4
smoothSolver:  Solving for Uz, Initial residual = 1.00205856734e-05, Final residual = 5.48765832684e-06, No Iterations 1
GAMG:  Solving for p, Initial residual = 1.80366131671e-06, Final residual = 9.21981152687e-07, No Iterations 1
time step continuity errors : sum local = 8.89319846466e-06, global = -4.8906790208e-08, cumulative = -3.42804604403
ExecutionTime = 180.05 s  ClockTime = 180 s

Time = 2117

smoothSolver:  Solving for Ux, Initial residual = 9.98048435002e-06, Final residual = 9.98048435002e-06, No Iterations 0
smoothSolver:  Solving for Uy, Initial residual = 0.000134860659891, Final residual = 1.22745514824e-05, No Iterations 4
smoothSolver:  Solving for Uz, Initial residual = 1.00096648948e-05, Final residual = 5.48167804901e-06, No Iterations 1
GAMG:  Solving for p, Initial residual = 1.7987929758e-06, Final residual = 9.15075222238e-07, No Iterations 1
time step continuity errors : sum local = 8.82657765567e-06, global = -4.82231853184e-08, cumulative = -3.42804609225
ExecutionTime = 180.13 s  ClockTime = 181 s

Time = 2118

smoothSolver:  Solving for Ux, Initial residual = 9.98546902985e-06, Final residual = 9.98546902985e-06, No Iterations 0
smoothSolver:  Solving for Uy, Initial residual = 0.000134679604007, Final residual = 1.22581901645e-05, No Iterations 4
smoothSolver:  Solving for Uz, Initial residual = 9.99876076972e-06, Final residual = 9.99876076972e-06, No Iterations 0
GAMG:  Solving for p, Initial residual = 3.7039764185e-05, Final residual = 1.46423826355e-06, No Iterations 10
time step continuity errors : sum local = 1.4123653333e-05, global = 3.95502199242e-08, cumulative = -3.4280460527
ExecutionTime = 180.22 s  ClockTime = 181 s

Time = 2119

smoothSolver:  Solving for Ux, Initial residual = 9.984423717e-06, Final residual = 9.984423717e-06, No Iterations 0
smoothSolver:  Solving for Uy, Initial residual = 0.000105792356023, Final residual = 9.56544283437e-06, No Iterations 4
smoothSolver:  Solving for Uz, Initial residual = 1.02587183627e-05, Final residual = 5.61392612154e-06, No Iterations 1
GAMG:  Solving for p, Initial residual = 2.53714729919e-05, Final residual = 8.2201248117e-07, No Iterations 10
time step continuity errors : sum local = 7.9285763438e-06, global = -2.3706491865e-08, cumulative = -3.4280460764
ExecutionTime = 180.31 s  ClockTime = 181 s

Time = 2120

smoothSolver:  Solving for Ux, Initial residual = 9.98963242194e-06, Final residual = 9.98963242194e-06, No Iterations 0
smoothSolver:  Solving for Uy, Initial residual = 0.000107758713817, Final residual = 9.79170485699e-06, No Iterations 4
smoothSolver:  Solving for Uz, Initial residual = 1.02198400711e-05, Final residual = 5.59376153645e-06, No Iterations 1
GAMG:  Solving for p, Initial residual = 1.94132893964e-05, Final residual = 7.62586467737e-07, No Iterations 8
time step continuity errors : sum local = 7.3553811286e-06, global = -4.13720658968e-08, cumulative = -3.42804611778
ExecutionTime = 180.4 s  ClockTime = 181 s

Time = 2121

smoothSolver:  Solving for Ux, Initial residual = 9.99265200246e-06, Final residual = 9.99265200246e-06, No Iterations 0
smoothSolver:  Solving for Uy, Initial residual = 0.000114852492095, Final residual = 1.04358901897e-05, No Iterations 4
smoothSolver:  Solving for Uz, Initial residual = 1.01224407596e-05, Final residual = 5.54193091702e-06, No Iterations 1
GAMG:  Solving for p, Initial residual = 2.069718967e-05, Final residual = 9.38843152714e-07, No Iterations 8
time step continuity errors : sum local = 9.055474748e-06, global = -2.69435876698e-08, cumulative = -3.42804614472
ExecutionTime = 180.48 s  ClockTime = 181 s

Time = 2122

smoothSolver:  Solving for Ux, Initial residual = 9.98559995205e-06, Final residual = 9.98559995205e-06, No Iterations 0
smoothSolver:  Solving for Uy, Initial residual = 0.00012541594006, Final residual = 1.1390204399e-05, No Iterations 4
smoothSolver:  Solving for Uz, Initial residual = 1.00167562791e-05, Final residual = 5.48551172036e-06, No Iterations 1
GAMG:  Solving for p, Initial residual = 2.03793845752e-05, Final residual = 9.09173237838e-07, No Iterations 7
time step continuity errors : sum local = 8.76938748984e-06, global = -2.64686981229e-08, cumulative = -3.42804617119
ExecutionTime = 180.57 s  ClockTime = 181 s

Time = 2123

smoothSolver:  Solving for Ux, Initial residual = 9.99365228539e-06, Final residual = 9.99365228539e-06, No Iterations 0
smoothSolver:  Solving for Uy, Initial residual = 0.000132964870051, Final residual = 1.20763696656e-05, No Iterations 4
smoothSolver:  Solving for Uz, Initial residual = 9.93930646273e-06, Final residual = 9.93930646273e-06, No Iterations 0
GAMG:  Solving for p, Initial residual = 3.39024275258e-05, Final residual = 1.42573278147e-06, No Iterations 10
time step continuity errors : sum local = 1.3751993765e-05, global = 3.93888075416e-08, cumulative = -3.4280461318
ExecutionTime = 180.65 s  ClockTime = 181 s

Time = 2124

smoothSolver:  Solving for Ux, Initial residual = 9.99519887864e-06, Final residual = 9.99519887864e-06, No Iterations 0
smoothSolver:  Solving for Uy, Initial residual = 0.000108819895804, Final residual = 9.83385162041e-06, No Iterations 4
smoothSolver:  Solving for Uz, Initial residual = 1.01639093e-05, Final residual = 5.56338206389e-06, No Iterations 1
GAMG:  Solving for p, Initial residual = 2.12561208733e-05, Final residual = 7.78813824539e-07, No Iterations 10
time step continuity errors : sum local = 7.51186927627e-06, global = -2.47731138465e-08, cumulative = -3.42804615657
ExecutionTime = 180.74 s  ClockTime = 181 s

Time = 2125

smoothSolver:  Solving for Ux, Initial residual = 9.99305611964e-06, Final residual = 9.99305611964e-06, No Iterations 0
smoothSolver:  Solving for Uy, Initial residual = 0.000110810674947, Final residual = 1.00831599306e-05, No Iterations 4
smoothSolver:  Solving for Uz, Initial residual = 1.01224186464e-05, Final residual = 5.54159746801e-06, No Iterations 1
GAMG:  Solving for p, Initial residual = 1.64451147514e-05, Final residual = 7.98959418137e-07, No Iterations 8
time step continuity errors : sum local = 7.70616957383e-06, global = -2.3245937465e-08, cumulative = -3.42804617982
ExecutionTime = 180.84 s  ClockTime = 181 s

Time = 2126

smoothSolver:  Solving for Ux, Initial residual = 9.98901894966e-06, Final residual = 9.98901894966e-06, No Iterations 0
smoothSolver:  Solving for Uy, Initial residual = 0.000117178913268, Final residual = 1.06560763993e-05, No Iterations 4
smoothSolver:  Solving for Uz, Initial residual = 1.00366362449e-05, Final residual = 5.49574911732e-06, No Iterations 1
GAMG:  Solving for p, Initial residual = 1.66714881186e-05, Final residual = 7.27549768023e-07, No Iterations 8
time step continuity errors : sum local = 7.01743835948e-06, global = -2.9422052672e-08, cumulative = -3.42804620924
ExecutionTime = 180.92 s  ClockTime = 181 s

Time = 2127

smoothSolver:  Solving for Ux, Initial residual = 9.99175775036e-06, Final residual = 9.99175775036e-06, No Iterations 0
smoothSolver:  Solving for Uy, Initial residual = 0.000126322259342, Final residual = 1.14791154848e-05, No Iterations 4
smoothSolver:  Solving for Uz, Initial residual = 9.9479424004e-06, Final residual = 9.9479424004e-06, No Iterations 0
GAMG:  Solving for p, Initial residual = 2.91129541721e-05, Final residual = 1.31944708184e-06, No Iterations 10
time step continuity errors : sum local = 1.27266048948e-05, global = 4.78017260746e-08, cumulative = -3.42804616144
ExecutionTime = 181.01 s  ClockTime = 181 s

Time = 2128

smoothSolver:  Solving for Ux, Initial residual = 9.99439797533e-06, Final residual = 9.99439797533e-06, No Iterations 0
smoothSolver:  Solving for Uy, Initial residual = 0.000103463915568, Final residual = 9.35798682232e-06, No Iterations 4
smoothSolver:  Solving for Uz, Initial residual = 1.01537662285e-05, Final residual = 5.55763949112e-06, No Iterations 1
GAMG:  Solving for p, Initial residual = 1.84879732079e-05, Final residual = 8.07864410639e-07, No Iterations 10
time step continuity errors : sum local = 7.79196253009e-06, global = -6.87015979418e-09, cumulative = -3.42804616831
ExecutionTime = 181.1 s  ClockTime = 182 s

Time = 2129

smoothSolver:  Solving for Ux, Initial residual = 9.99682062636e-06, Final residual = 9.99682062636e-06, No Iterations 0
smoothSolver:  Solving for Uy, Initial residual = 0.000108893077176, Final residual = 9.90486214123e-06, No Iterations 4
smoothSolver:  Solving for Uz, Initial residual = 1.00939498805e-05, Final residual = 5.52604797478e-06, No Iterations 1
GAMG:  Solving for p, Initial residual = 1.5797976829e-05, Final residual = 8.28797894883e-07, No Iterations 8
time step continuity errors : sum local = 7.9939047053e-06, global = -2.68187622834e-08, cumulative = -3.42804619513
ExecutionTime = 181.19 s  ClockTime = 182 s

Time = 2130

smoothSolver:  Solving for Ux, Initial residual = 1.00027072812e-05, Final residual = 5.33077785768e-06, No Iterations 1
smoothSolver:  Solving for Uy, Initial residual = 0.000116712883971, Final residual = 1.06112590307e-05, No Iterations 4
smoothSolver:  Solving for Uz, Initial residual = 9.99795062733e-06, Final residual = 9.99795062733e-06, No Iterations 0
GAMG:  Solving for p, Initial residual = 2.51246841749e-05, Final residual = 1.09250144694e-06, No Iterations 10
time step continuity errors : sum local = 1.05374641352e-05, global = 4.96712970274e-08, cumulative = -3.42804614546
ExecutionTime = 181.29 s  ClockTime = 182 s

Time = 2131

smoothSolver:  Solving for Ux, Initial residual = 9.90016033594e-06, Final residual = 9.90016033594e-06, No Iterations 0
smoothSolver:  Solving for Uy, Initial residual = 9.65394511091e-05, Final residual = 8.73625108153e-06, No Iterations 4
smoothSolver:  Solving for Uz, Initial residual = 1.01753354385e-05, Final residual = 5.5689740821e-06, No Iterations 1
GAMG:  Solving for p, Initial residual = 1.69208786103e-05, Final residual = 7.67348424272e-07, No Iterations 10
time step continuity errors : sum local = 7.40102345198e-06, global = -7.86029644432e-09, cumulative = -3.42804615332
ExecutionTime = 181.37 s  ClockTime = 182 s


SIMPLE solution converged in 2131 iterations

    writing object shearStress
End

Finalising parallel run
