/*---------------------------------------------------------------------------*\
  =========                 |
  \\      /  F ield         | OpenFOAM: The Open Source CFD Toolbox
   \\    /   O peration     | Website:  https://openfoam.org
    \\  /    A nd           | Version:  9
     \\/     M anipulation  |
\*---------------------------------------------------------------------------*/
Build  : 9-b456138dc4bc
Exec   : simpleFoam -parallel
Date   : Apr 12 2022
Time   : 12:17:31
Host   : "KORIN-LAB"
PID    : 2163
I/O    : uncollated
Case   : /home/colin/OpenFOAM/colin-9/run/wsl/wedge_needle/55_temp/tapered_true_layer
nProcs : 6
Slaves : 
5
(
"KORIN-LAB.2164"
"KORIN-LAB.2165"
"KORIN-LAB.2166"
"KORIN-LAB.2167"
"KORIN-LAB.2168"
)

Pstream initialised with:
    floatTransfer      : 0
    nProcsSimpleSum    : 0
    commsType          : nonBlocking
    polling iterations : 0
sigFpe : Enabling floating point exception trapping (FOAM_SIGFPE).
fileModificationChecking : Monitoring run-time modified files using timeStampMaster (fileModificationSkew 10)
allowSystemOperations : Allowing user-supplied system call operations

// * * * * * * * * * * * * * * * * * * * * * * * * * * * * * * * * * * * * * //
Create time

Create mesh for time = 0


SIMPLE: Convergence criteria found
        p: tolerance 0.001
        U: tolerance 0.0001
        "(k|epsilon|omega|f|v2)": tolerance 0.0001

Reading field p

Reading field U

Reading/calculating face flux field phi

Selecting incompressible transport model powerLaw
Selecting turbulence model type laminar
Selecting laminar stress model Stokes
No MRF models present

No fvModels present
No fvConstraints present

Starting time loop

wallShearStress wallShearStress:
    processing all wall patches

Time = 1

smoothSolver:  Solving for Ux, Initial residual = 0.999641905989, Final residual = 0.0919113944635, No Iterations 2
smoothSolver:  Solving for Uy, Initial residual = 0.99999999999, Final residual = 0.0705822008597, No Iterations 2
smoothSolver:  Solving for Uz, Initial residual = 1, Final residual = 0.0920630302967, No Iterations 2
GAMG:  Solving for p, Initial residual = 0.999999999986, Final residual = 0.0448272277215, No Iterations 28
time step continuity errors : sum local = 0.014648618912, global = -7.71368300231e-06, cumulative = -7.71368300231e-06
ExecutionTime = 0.15 s  ClockTime = 0 s

Time = 2

smoothSolver:  Solving for Ux, Initial residual = 0.543167198696, Final residual = 0.0452847081317, No Iterations 4
smoothSolver:  Solving for Uy, Initial residual = 0.592941803287, Final residual = 0.0528689510422, No Iterations 4
smoothSolver:  Solving for Uz, Initial residual = 0.472828265228, Final residual = 0.041763254098, No Iterations 4
GAMG:  Solving for p, Initial residual = 0.0119116471753, Final residual = 0.000483158286792, No Iterations 16
time step continuity errors : sum local = 0.927114049707, global = 0.00205650837796, cumulative = 0.00204879469496
ExecutionTime = 0.24 s  ClockTime = 0 s

Time = 3

smoothSolver:  Solving for Ux, Initial residual = 0.0842582791377, Final residual = 0.00500067090959, No Iterations 4
smoothSolver:  Solving for Uy, Initial residual = 0.259137399324, Final residual = 0.0216635754359, No Iterations 4
smoothSolver:  Solving for Uz, Initial residual = 0.069236930858, Final residual = 0.00611863717832, No Iterations 4
GAMG:  Solving for p, Initial residual = 0.0133945294132, Final residual = 0.000575179494689, No Iterations 18
time step continuity errors : sum local = 0.549552759745, global = 0.00116474017334, cumulative = 0.0032135348683
ExecutionTime = 0.32 s  ClockTime = 0 s

Time = 4

smoothSolver:  Solving for Ux, Initial residual = 0.00756631248302, Final residual = 0.000453818314035, No Iterations 4
smoothSolver:  Solving for Uy, Initial residual = 0.184279508002, Final residual = 0.0162528803693, No Iterations 4
smoothSolver:  Solving for Uz, Initial residual = 0.0197961648109, Final residual = 0.00166437569174, No Iterations 4
GAMG:  Solving for p, Initial residual = 0.173592368106, Final residual = 0.00862262580743, No Iterations 12
time step continuity errors : sum local = 1.22889897854, global = 0.00438538521507, cumulative = 0.00759892008338
ExecutionTime = 0.4 s  ClockTime = 1 s

Time = 5

smoothSolver:  Solving for Ux, Initial residual = 0.00241739967242, Final residual = 0.000166860378211, No Iterations 4
smoothSolver:  Solving for Uy, Initial residual = 0.0355233184447, Final residual = 0.00298652145902, No Iterations 4
smoothSolver:  Solving for Uz, Initial residual = 0.0147710766258, Final residual = 0.00119145915635, No Iterations 4
GAMG:  Solving for p, Initial residual = 0.0665022312779, Final residual = 0.00290232166473, No Iterations 12
time step continuity errors : sum local = 0.679378306604, global = -0.000171840122535, cumulative = 0.00742707996084
ExecutionTime = 0.48 s  ClockTime = 1 s

Time = 6

smoothSolver:  Solving for Ux, Initial residual = 0.00134987573276, Final residual = 8.24436570648e-05, No Iterations 4
smoothSolver:  Solving for Uy, Initial residual = 0.120569988018, Final residual = 0.0105685309846, No Iterations 4
smoothSolver:  Solving for Uz, Initial residual = 0.0386617390367, Final residual = 0.00335703016472, No Iterations 4
GAMG:  Solving for p, Initial residual = 0.0267095221015, Final residual = 0.00106470563432, No Iterations 14
time step continuity errors : sum local = 0.212658617206, global = -0.00101575921356, cumulative = 0.00641132074728
ExecutionTime = 0.55 s  ClockTime = 1 s

Time = 7

smoothSolver:  Solving for Ux, Initial residual = 0.00114801983862, Final residual = 5.97785834769e-05, No Iterations 4
smoothSolver:  Solving for Uy, Initial residual = 0.407775351672, Final residual = 0.0362659724119, No Iterations 4
smoothSolver:  Solving for Uz, Initial residual = 0.0518205210219, Final residual = 0.00456955928925, No Iterations 4
GAMG:  Solving for p, Initial residual = 0.053427775283, Final residual = 0.00259538218468, No Iterations 13
time step continuity errors : sum local = 0.303058729554, global = -0.00116468658466, cumulative = 0.00524663416262
ExecutionTime = 0.64 s  ClockTime = 1 s

Time = 8

smoothSolver:  Solving for Ux, Initial residual = 0.0010018861156, Final residual = 5.38430987258e-05, No Iterations 4
smoothSolver:  Solving for Uy, Initial residual = 0.113395266669, Final residual = 0.0100823770682, No Iterations 4
smoothSolver:  Solving for Uz, Initial residual = 0.0347369642206, Final residual = 0.00306202842121, No Iterations 4
GAMG:  Solving for p, Initial residual = 0.24092188217, Final residual = 0.00788880200214, No Iterations 11
time step continuity errors : sum local = 0.21470257625, global = -0.000337351885327, cumulative = 0.00490928227729
ExecutionTime = 0.72 s  ClockTime = 1 s

Time = 9

smoothSolver:  Solving for Ux, Initial residual = 0.000931907153421, Final residual = 5.58681429269e-05, No Iterations 4
smoothSolver:  Solving for Uy, Initial residual = 0.0496261230593, Final residual = 0.00436205778966, No Iterations 4
smoothSolver:  Solving for Uz, Initial residual = 0.0171782080808, Final residual = 0.00150055693874, No Iterations 4
GAMG:  Solving for p, Initial residual = 0.142579006018, Final residual = 0.00528776238433, No Iterations 11
time step continuity errors : sum local = 0.173337750633, global = 7.06621776524e-05, cumulative = 0.00497994445495
ExecutionTime = 0.8 s  ClockTime = 1 s

Time = 10

smoothSolver:  Solving for Ux, Initial residual = 0.000866298979469, Final residual = 6.02483724471e-05, No Iterations 4
smoothSolver:  Solving for Uy, Initial residual = 0.0317568510682, Final residual = 0.00269791772666, No Iterations 4
smoothSolver:  Solving for Uz, Initial residual = 0.00729429380262, Final residual = 0.00062066993423, No Iterations 4
GAMG:  Solving for p, Initial residual = 0.0800410567667, Final residual = 0.00332515774047, No Iterations 10
time step continuity errors : sum local = 0.113163590662, global = 0.00114063704761, cumulative = 0.00612058150256
ExecutionTime = 0.88 s  ClockTime = 1 s

Time = 11

smoothSolver:  Solving for Ux, Initial residual = 0.000855897556812, Final residual = 6.66250310101e-05, No Iterations 4
smoothSolver:  Solving for Uy, Initial residual = 0.0611171097876, Final residual = 0.00536479613817, No Iterations 4
smoothSolver:  Solving for Uz, Initial residual = 0.00797618777556, Final residual = 0.000696628500213, No Iterations 4
GAMG:  Solving for p, Initial residual = 0.0783794596369, Final residual = 0.00297354348775, No Iterations 11
time step continuity errors : sum local = 0.0716960617612, global = 0.000234116143684, cumulative = 0.00635469764624
ExecutionTime = 0.96 s  ClockTime = 1 s

Time = 12

smoothSolver:  Solving for Ux, Initial residual = 0.000930350962146, Final residual = 7.51800064662e-05, No Iterations 4
smoothSolver:  Solving for Uy, Initial residual = 0.0965933699939, Final residual = 0.00863201985931, No Iterations 4
smoothSolver:  Solving for Uz, Initial residual = 0.00920324934605, Final residual = 0.000818577372229, No Iterations 4
GAMG:  Solving for p, Initial residual = 0.11845983257, Final residual = 0.00532884274036, No Iterations 10
time step continuity errors : sum local = 0.0702481404526, global = 8.54624261823e-05, cumulative = 0.00644016007242
ExecutionTime = 1.04 s  ClockTime = 1 s

Time = 13

smoothSolver:  Solving for Ux, Initial residual = 0.000981686288472, Final residual = 7.88967008961e-05, No Iterations 4
smoothSolver:  Solving for Uy, Initial residual = 0.0835468262826, Final residual = 0.00747459707587, No Iterations 4
smoothSolver:  Solving for Uz, Initial residual = 0.00745518464538, Final residual = 0.000664775640554, No Iterations 4
GAMG:  Solving for p, Initial residual = 0.223697679152, Final residual = 0.0100112083992, No Iterations 12
time step continuity errors : sum local = 0.0602354334222, global = 7.68161322591e-06, cumulative = 0.00644784168565
ExecutionTime = 1.13 s  ClockTime = 1 s

Time = 14

smoothSolver:  Solving for Ux, Initial residual = 0.000970916782719, Final residual = 7.79262209783e-05, No Iterations 4
smoothSolver:  Solving for Uy, Initial residual = 0.0468664491095, Final residual = 0.00418260300936, No Iterations 4
smoothSolver:  Solving for Uz, Initial residual = 0.00439948027951, Final residual = 0.000389487179469, No Iterations 4
GAMG:  Solving for p, Initial residual = 0.30158203453, Final residual = 0.0131225504745, No Iterations 12
time step continuity errors : sum local = 0.0474050148012, global = -2.60517850908e-05, cumulative = 0.00642178990056
ExecutionTime = 1.22 s  ClockTime = 1 s

Time = 15

smoothSolver:  Solving for Ux, Initial residual = 0.00093858581806, Final residual = 7.54309449437e-05, No Iterations 4
smoothSolver:  Solving for Uy, Initial residual = 0.0216734544957, Final residual = 0.00188494165373, No Iterations 4
smoothSolver:  Solving for Uz, Initial residual = 0.00224761626524, Final residual = 0.000192406746816, No Iterations 4
GAMG:  Solving for p, Initial residual = 0.205560178106, Final residual = 0.00933519289992, No Iterations 11
time step continuity errors : sum local = 0.0356728234202, global = -8.30356198654e-05, cumulative = 0.00633875428069
ExecutionTime = 1.3 s  ClockTime = 1 s

Time = 16

smoothSolver:  Solving for Ux, Initial residual = 0.000901017881778, Final residual = 7.26013301613e-05, No Iterations 4
smoothSolver:  Solving for Uy, Initial residual = 0.0193039011915, Final residual = 0.00166214686176, No Iterations 4
smoothSolver:  Solving for Uz, Initial residual = 0.00222128236118, Final residual = 0.000190598376984, No Iterations 4
GAMG:  Solving for p, Initial residual = 0.159038061854, Final residual = 0.00657324134599, No Iterations 11
time step continuity errors : sum local = 0.0210783769112, global = -2.21460934017e-05, cumulative = 0.00631660818729
ExecutionTime = 1.38 s  ClockTime = 2 s

Time = 17

smoothSolver:  Solving for Ux, Initial residual = 0.000864736722552, Final residual = 7.01542408873e-05, No Iterations 4
smoothSolver:  Solving for Uy, Initial residual = 0.0215646849237, Final residual = 0.00189300137775, No Iterations 4
smoothSolver:  Solving for Uz, Initial residual = 0.00264800624475, Final residual = 0.000233368548609, No Iterations 4
GAMG:  Solving for p, Initial residual = 0.182884941787, Final residual = 0.00736608693077, No Iterations 11
time step continuity errors : sum local = 0.0157010902755, global = 1.54126565176e-06, cumulative = 0.00631814945294
ExecutionTime = 1.46 s  ClockTime = 2 s

Time = 18

smoothSolver:  Solving for Ux, Initial residual = 0.000837617617484, Final residual = 6.85945989018e-05, No Iterations 4
smoothSolver:  Solving for Uy, Initial residual = 0.0178665903256, Final residual = 0.0015707304741, No Iterations 4
smoothSolver:  Solving for Uz, Initial residual = 0.00223213465859, Final residual = 0.000197312629294, No Iterations 4
GAMG:  Solving for p, Initial residual = 0.168257565392, Final residual = 0.00625704685872, No Iterations 11
time step continuity errors : sum local = 0.0129056637266, global = -1.63149409625e-06, cumulative = 0.00631651795885
ExecutionTime = 1.53 s  ClockTime = 2 s

Time = 19

smoothSolver:  Solving for Ux, Initial residual = 0.000823627800587, Final residual = 6.81732351408e-05, No Iterations 4
smoothSolver:  Solving for Uy, Initial residual = 0.01176166989, Final residual = 0.00102421406248, No Iterations 4
smoothSolver:  Solving for Uz, Initial residual = 0.00144755108133, Final residual = 0.000126132448037, No Iterations 4
GAMG:  Solving for p, Initial residual = 0.120067945471, Final residual = 0.00484344326332, No Iterations 11
time step continuity errors : sum local = 0.0121950186067, global = -5.83173253431e-07, cumulative = 0.00631593478559
ExecutionTime = 1.6 s  ClockTime = 2 s

Time = 20

smoothSolver:  Solving for Ux, Initial residual = 0.000820307762282, Final residual = 6.85288643143e-05, No Iterations 4
smoothSolver:  Solving for Uy, Initial residual = 0.00674107831428, Final residual = 0.000579841783859, No Iterations 4
smoothSolver:  Solving for Uz, Initial residual = 0.000887806170624, Final residual = 7.54866530593e-05, No Iterations 4
GAMG:  Solving for p, Initial residual = 0.0843612308059, Final residual = 0.00309854719671, No Iterations 9
time step continuity errors : sum local = 0.00841059212246, global = -3.78543842006e-05, cumulative = 0.00627808040139
ExecutionTime = 1.67 s  ClockTime = 2 s

Time = 21

smoothSolver:  Solving for Ux, Initial residual = 0.000822001218786, Final residual = 6.90860662299e-05, No Iterations 4
smoothSolver:  Solving for Uy, Initial residual = 0.00586692262755, Final residual = 0.000505101600667, No Iterations 4
smoothSolver:  Solving for Uz, Initial residual = 0.000791460091888, Final residual = 6.71531672082e-05, No Iterations 4
GAMG:  Solving for p, Initial residual = 0.0624666303524, Final residual = 0.00280498613146, No Iterations 10
time step continuity errors : sum local = 0.00743988230053, global = 3.23212019114e-05, cumulative = 0.0063104016033
ExecutionTime = 1.75 s  ClockTime = 2 s

Time = 22

smoothSolver:  Solving for Ux, Initial residual = 0.00082420993529, Final residual = 6.94064968873e-05, No Iterations 4
smoothSolver:  Solving for Uy, Initial residual = 0.00647228693344, Final residual = 0.000570920432528, No Iterations 4
smoothSolver:  Solving for Uz, Initial residual = 0.000892865994357, Final residual = 7.76005711864e-05, No Iterations 4
GAMG:  Solving for p, Initial residual = 0.0526863328878, Final residual = 0.00244823542987, No Iterations 10
time step continuity errors : sum local = 0.0060498529674, global = 5.06714170219e-06, cumulative = 0.00631546874501
ExecutionTime = 1.83 s  ClockTime = 2 s

Time = 23

smoothSolver:  Solving for Ux, Initial residual = 0.00082121910091, Final residual = 6.928672598e-05, No Iterations 4
smoothSolver:  Solving for Uy, Initial residual = 0.00581300317267, Final residual = 0.000513776424198, No Iterations 4
smoothSolver:  Solving for Uz, Initial residual = 0.000827122803733, Final residual = 7.20247003572e-05, No Iterations 4
GAMG:  Solving for p, Initial residual = 0.0517322061438, Final residual = 0.00216964820714, No Iterations 11
time step continuity errors : sum local = 0.00469859656852, global = 1.60606686425e-06, cumulative = 0.00631707481187
ExecutionTime = 1.92 s  ClockTime = 2 s

Time = 24

smoothSolver:  Solving for Ux, Initial residual = 0.000812842135282, Final residual = 6.87550256107e-05, No Iterations 4
smoothSolver:  Solving for Uy, Initial residual = 0.00424454582059, Final residual = 0.000372189818603, No Iterations 4
smoothSolver:  Solving for Uz, Initial residual = 0.000623478661532, Final residual = 5.35380370761e-05, No Iterations 4
GAMG:  Solving for p, Initial residual = 0.0531797012356, Final residual = 0.00261832506268, No Iterations 10
time step continuity errors : sum local = 0.00485576703003, global = 1.11036782139e-06, cumulative = 0.00631818517969
ExecutionTime = 2 s  ClockTime = 2 s

Time = 25

smoothSolver:  Solving for Ux, Initial residual = 0.000801406076733, Final residual = 6.79789513228e-05, No Iterations 4
smoothSolver:  Solving for Uy, Initial residual = 0.00284746847206, Final residual = 0.000243434266963, No Iterations 4
smoothSolver:  Solving for Uz, Initial residual = 0.00044973272343, Final residual = 3.76189710549e-05, No Iterations 4
GAMG:  Solving for p, Initial residual = 0.0496586936818, Final residual = 0.00222052634218, No Iterations 11
time step continuity errors : sum local = 0.00365746662066, global = 7.01740921372e-06, cumulative = 0.0063252025889
ExecutionTime = 2.08 s  ClockTime = 2 s

Time = 26

smoothSolver:  Solving for Ux, Initial residual = 0.000789015378158, Final residual = 6.71199067543e-05, No Iterations 4
smoothSolver:  Solving for Uy, Initial residual = 0.00229589443161, Final residual = 0.000191084974771, No Iterations 4
smoothSolver:  Solving for Uz, Initial residual = 0.000378340650322, Final residual = 3.10423194776e-05, No Iterations 4
GAMG:  Solving for p, Initial residual = 0.0428385806177, Final residual = 0.00198214291168, No Iterations 10
time step continuity errors : sum local = 0.00305427309051, global = -7.61045427834e-06, cumulative = 0.00631759213463
ExecutionTime = 2.16 s  ClockTime = 2 s

Time = 27

smoothSolver:  Solving for Ux, Initial residual = 0.000777337159635, Final residual = 6.63048223742e-05, No Iterations 4
smoothSolver:  Solving for Uy, Initial residual = 0.00235174137927, Final residual = 0.00019494878053, No Iterations 4
smoothSolver:  Solving for Uz, Initial residual = 0.000381478851655, Final residual = 3.13061189816e-05, No Iterations 4
GAMG:  Solving for p, Initial residual = 0.0358649803278, Final residual = 0.00156236521103, No Iterations 9
time step continuity errors : sum local = 0.0023263866348, global = -8.19833939158e-07, cumulative = 0.00631677230069
ExecutionTime = 2.23 s  ClockTime = 2 s

Time = 28

smoothSolver:  Solving for Ux, Initial residual = 0.000766998743736, Final residual = 6.55837313014e-05, No Iterations 4
smoothSolver:  Solving for Uy, Initial residual = 0.00225205255753, Final residual = 0.00018824641481, No Iterations 4
smoothSolver:  Solving for Uz, Initial residual = 0.000377033841342, Final residual = 3.11993578115e-05, No Iterations 4
GAMG:  Solving for p, Initial residual = 0.0303291449939, Final residual = 0.00111722390835, No Iterations 9
time step continuity errors : sum local = 0.00165137723989, global = -1.26260791793e-06, cumulative = 0.00631550969277
ExecutionTime = 2.31 s  ClockTime = 2 s

Time = 29

smoothSolver:  Solving for Ux, Initial residual = 0.000758405220152, Final residual = 6.49846348252e-05, No Iterations 4
smoothSolver:  Solving for Uy, Initial residual = 0.0018237212491, Final residual = 0.000152028677507, No Iterations 4
smoothSolver:  Solving for Uz, Initial residual = 0.000354363778148, Final residual = 2.92287113341e-05, No Iterations 4
GAMG:  Solving for p, Initial residual = 0.0267021294885, Final residual = 0.000987409480976, No Iterations 9
time step continuity errors : sum local = 0.0014560322574, global = -4.67878176657e-07, cumulative = 0.00631504181459
ExecutionTime = 2.39 s  ClockTime = 3 s

Time = 30

smoothSolver:  Solving for Ux, Initial residual = 0.000751002988345, Final residual = 6.4463942448e-05, No Iterations 4
smoothSolver:  Solving for Uy, Initial residual = 0.00143291762205, Final residual = 0.000118142005745, No Iterations 4
smoothSolver:  Solving for Uz, Initial residual = 0.00032585450176, Final residual = 2.66296185196e-05, No Iterations 4
GAMG:  Solving for p, Initial residual = 0.0237049816722, Final residual = 0.000731934390378, No Iterations 9
time step continuity errors : sum local = 0.00107078618643, global = -9.86854429734e-07, cumulative = 0.00631405496016
ExecutionTime = 2.47 s  ClockTime = 3 s

Time = 31

smoothSolver:  Solving for Ux, Initial residual = 0.000744126330839, Final residual = 6.39755133294e-05, No Iterations 4
smoothSolver:  Solving for Uy, Initial residual = 0.00122546581918, Final residual = 0.000100817659732, No Iterations 4
smoothSolver:  Solving for Uz, Initial residual = 0.000315901191463, Final residual = 2.58453444584e-05, No Iterations 4
GAMG:  Solving for p, Initial residual = 0.0206739019462, Final residual = 0.000997058478698, No Iterations 8
time step continuity errors : sum local = 0.00143134915178, global = 4.22047970574e-06, cumulative = 0.00631827543987
ExecutionTime = 2.54 s  ClockTime = 3 s

Time = 32

smoothSolver:  Solving for Ux, Initial residual = 0.000737111142639, Final residual = 6.34694885539e-05, No Iterations 4
smoothSolver:  Solving for Uy, Initial residual = 0.00120252084912, Final residual = 0.000100604177187, No Iterations 4
smoothSolver:  Solving for Uz, Initial residual = 0.000312822197699, Final residual = 2.57725078526e-05, No Iterations 4
GAMG:  Solving for p, Initial residual = 0.0177628731798, Final residual = 0.000815834750367, No Iterations 8
time step continuity errors : sum local = 0.00114232009999, global = 1.47168198864e-06, cumulative = 0.00631974712186
ExecutionTime = 2.62 s  ClockTime = 3 s

Time = 33

smoothSolver:  Solving for Ux, Initial residual = 0.000729805470245, Final residual = 6.29334215458e-05, No Iterations 4
smoothSolver:  Solving for Uy, Initial residual = 0.00118624454872, Final residual = 0.000100092267009, No Iterations 4
smoothSolver:  Solving for Uz, Initial residual = 0.000308046295807, Final residual = 2.55128258514e-05, No Iterations 4
GAMG:  Solving for p, Initial residual = 0.0157315093948, Final residual = 0.000746751524694, No Iterations 7
time step continuity errors : sum local = 0.00101431888222, global = 1.2800992153e-06, cumulative = 0.00632102722107
ExecutionTime = 2.69 s  ClockTime = 3 s

Time = 34

smoothSolver:  Solving for Ux, Initial residual = 0.000722254986253, Final residual = 6.23708535348e-05, No Iterations 4
smoothSolver:  Solving for Uy, Initial residual = 0.00110940107766, Final residual = 9.34162691663e-05, No Iterations 4
smoothSolver:  Solving for Uz, Initial residual = 0.000298837014783, Final residual = 2.47866700032e-05, No Iterations 4
GAMG:  Solving for p, Initial residual = 0.0141046049083, Final residual = 0.00061037986485, No Iterations 7
time step continuity errors : sum local = 0.00080347933133, global = 5.31037630581e-07, cumulative = 0.0063215582587
ExecutionTime = 2.77 s  ClockTime = 3 s

Time = 35

smoothSolver:  Solving for Ux, Initial residual = 0.000714471411974, Final residual = 6.1781973874e-05, No Iterations 4
smoothSolver:  Solving for Uy, Initial residual = 0.00101831923453, Final residual = 8.53338545954e-05, No Iterations 4
smoothSolver:  Solving for Uz, Initial residual = 0.000286891373544, Final residual = 2.37770678497e-05, No Iterations 4
GAMG:  Solving for p, Initial residual = 0.0131656907148, Final residual = 0.000534507602199, No Iterations 8
time step continuity errors : sum local = 0.000682863442302, global = 7.39282620505e-07, cumulative = 0.00632229754132
ExecutionTime = 2.86 s  ClockTime = 3 s

Time = 36

smoothSolver:  Solving for Ux, Initial residual = 0.000706646067503, Final residual = 6.11817663438e-05, No Iterations 4
smoothSolver:  Solving for Uy, Initial residual = 0.000947324988774, Final residual = 7.89833664809e-05, No Iterations 4
smoothSolver:  Solving for Uz, Initial residual = 0.000276417546229, Final residual = 2.28781107296e-05, No Iterations 4
GAMG:  Solving for p, Initial residual = 0.0120672063919, Final residual = 0.000582171208452, No Iterations 7
time step continuity errors : sum local = 0.000726288982425, global = 1.39068418948e-06, cumulative = 0.00632368822551
ExecutionTime = 2.93 s  ClockTime = 3 s

Time = 37

smoothSolver:  Solving for Ux, Initial residual = 0.000698948821863, Final residual = 6.05866045376e-05, No Iterations 4
smoothSolver:  Solving for Uy, Initial residual = 0.000910283692012, Final residual = 7.58037516094e-05, No Iterations 4
smoothSolver:  Solving for Uz, Initial residual = 0.000269113391094, Final residual = 2.22593215184e-05, No Iterations 4
GAMG:  Solving for p, Initial residual = 0.0106863118064, Final residual = 0.000493590581475, No Iterations 6
time step continuity errors : sum local = 0.000604778156314, global = 2.4009815955e-06, cumulative = 0.00632608920711
ExecutionTime = 3.01 s  ClockTime = 3 s

Time = 38

smoothSolver:  Solving for Ux, Initial residual = 0.000691413870329, Final residual = 5.99977072621e-05, No Iterations 4
smoothSolver:  Solving for Uy, Initial residual = 0.000892846310364, Final residual = 7.44930267691e-05, No Iterations 4
smoothSolver:  Solving for Uz, Initial residual = 0.000263844697297, Final residual = 2.18283946388e-05, No Iterations 4
GAMG:  Solving for p, Initial residual = 0.00955217561403, Final residual = 0.000474163751527, No Iterations 5
time step continuity errors : sum local = 0.000572214322784, global = -2.57142553538e-07, cumulative = 0.00632583206456
ExecutionTime = 3.08 s  ClockTime = 3 s

Time = 39

smoothSolver:  Solving for Ux, Initial residual = 0.000684143589643, Final residual = 5.94291005e-05, No Iterations 4
smoothSolver:  Solving for Uy, Initial residual = 0.000869088578021, Final residual = 7.26883950629e-05, No Iterations 4
smoothSolver:  Solving for Uz, Initial residual = 0.000259804385452, Final residual = 2.15175147829e-05, No Iterations 4
GAMG:  Solving for p, Initial residual = 0.00847192377554, Final residual = 0.000364701027137, No Iterations 5
time step continuity errors : sum local = 0.000433885411232, global = -2.82839314349e-07, cumulative = 0.00632554922524
ExecutionTime = 3.15 s  ClockTime = 3 s

Time = 40

smoothSolver:  Solving for Ux, Initial residual = 0.000677184876533, Final residual = 5.88853514764e-05, No Iterations 4
smoothSolver:  Solving for Uy, Initial residual = 0.000834803161465, Final residual = 6.99495249555e-05, No Iterations 4
smoothSolver:  Solving for Uz, Initial residual = 0.00025654500585, Final residual = 2.1283444932e-05, No Iterations 4
GAMG:  Solving for p, Initial residual = 0.00772702378693, Final residual = 0.000332891299036, No Iterations 6
time step continuity errors : sum local = 0.000391075747653, global = -5.9920255741e-07, cumulative = 0.00632495002268
ExecutionTime = 3.23 s  ClockTime = 3 s

Time = 41

smoothSolver:  Solving for Ux, Initial residual = 0.000670383592682, Final residual = 5.83468951385e-05, No Iterations 4
smoothSolver:  Solving for Uy, Initial residual = 0.000806590120526, Final residual = 6.77782351433e-05, No Iterations 4
smoothSolver:  Solving for Uz, Initial residual = 0.00025370275907, Final residual = 2.10882683447e-05, No Iterations 4
GAMG:  Solving for p, Initial residual = 0.00708760016331, Final residual = 0.000312302963161, No Iterations 6
time step continuity errors : sum local = 0.000362758584012, global = -1.07128225992e-06, cumulative = 0.00632387874042
ExecutionTime = 3.3 s  ClockTime = 3 s

Time = 42

smoothSolver:  Solving for Ux, Initial residual = 0.000663704802703, Final residual = 5.78143959353e-05, No Iterations 4
smoothSolver:  Solving for Uy, Initial residual = 0.000779268117771, Final residual = 6.56598420807e-05, No Iterations 4
smoothSolver:  Solving for Uz, Initial residual = 0.000250588075199, Final residual = 2.08716890378e-05, No Iterations 4
GAMG:  Solving for p, Initial residual = 0.00642880039938, Final residual = 0.000318157173072, No Iterations 5
time step continuity errors : sum local = 0.000365296397906, global = 1.96632666826e-06, cumulative = 0.00632584506709
ExecutionTime = 3.37 s  ClockTime = 4 s

Time = 43

smoothSolver:  Solving for Ux, Initial residual = 0.000657135183013, Final residual = 5.72881706363e-05, No Iterations 4
smoothSolver:  Solving for Uy, Initial residual = 0.000759708782826, Final residual = 6.41504422427e-05, No Iterations 4
smoothSolver:  Solving for Uz, Initial residual = 0.00024727317173, Final residual = 2.06323500047e-05, No Iterations 4
GAMG:  Solving for p, Initial residual = 0.00578083965628, Final residual = 0.000230462150554, No Iterations 5
time step continuity errors : sum local = 0.000261662697603, global = 9.7958926916e-07, cumulative = 0.00632682465636
ExecutionTime = 3.45 s  ClockTime = 4 s

Time = 44

smoothSolver:  Solving for Ux, Initial residual = 0.000650661933386, Final residual = 5.67671032086e-05, No Iterations 4
smoothSolver:  Solving for Uy, Initial residual = 0.000744595918765, Final residual = 6.29929864726e-05, No Iterations 4
smoothSolver:  Solving for Uz, Initial residual = 0.000243681789145, Final residual = 2.03629714461e-05, No Iterations 4
GAMG:  Solving for p, Initial residual = 0.00525257432207, Final residual = 0.000221968719816, No Iterations 4
time step continuity errors : sum local = 0.000249006604869, global = 2.64997607368e-07, cumulative = 0.00632708965397
ExecutionTime = 3.52 s  ClockTime = 4 s

Time = 45

smoothSolver:  Solving for Ux, Initial residual = 0.000644279724081, Final residual = 5.62510996706e-05, No Iterations 4
smoothSolver:  Solving for Uy, Initial residual = 0.000728925623872, Final residual = 6.1747617568e-05, No Iterations 4
smoothSolver:  Solving for Uz, Initial residual = 0.000239896546188, Final residual = 2.0068576494e-05, No Iterations 4
GAMG:  Solving for p, Initial residual = 0.00477789234398, Final residual = 0.000194829634683, No Iterations 5
time step continuity errors : sum local = 0.00021605380278, global = 8.05200607231e-07, cumulative = 0.00632789485458
ExecutionTime = 3.6 s  ClockTime = 4 s

Time = 46

smoothSolver:  Solving for Ux, Initial residual = 0.00063798712156, Final residual = 5.57402741758e-05, No Iterations 4
smoothSolver:  Solving for Uy, Initial residual = 0.000714001784451, Final residual = 6.05295821655e-05, No Iterations 4
smoothSolver:  Solving for Uz, Initial residual = 0.000235947511225, Final residual = 1.9755471758e-05, No Iterations 4
GAMG:  Solving for p, Initial residual = 0.00440091011494, Final residual = 0.000190589471704, No Iterations 5
time step continuity errors : sum local = 0.0002089981838, global = 7.20984531861e-07, cumulative = 0.00632861583911
ExecutionTime = 3.67 s  ClockTime = 4 s

Time = 47

smoothSolver:  Solving for Ux, Initial residual = 0.000631793611342, Final residual = 5.52356485238e-05, No Iterations 4
smoothSolver:  Solving for Uy, Initial residual = 0.000699307674163, Final residual = 5.93226167473e-05, No Iterations 4
smoothSolver:  Solving for Uz, Initial residual = 0.000232069307935, Final residual = 1.94442893892e-05, No Iterations 4
GAMG:  Solving for p, Initial residual = 0.00405377438143, Final residual = 0.000158709779952, No Iterations 5
time step continuity errors : sum local = 0.000172257805931, global = 7.35212523852e-07, cumulative = 0.00632935105163
ExecutionTime = 3.74 s  ClockTime = 4 s

Time = 48

smoothSolver:  Solving for Ux, Initial residual = 0.000625710910303, Final residual = 5.47383708306e-05, No Iterations 4
smoothSolver:  Solving for Uy, Initial residual = 0.000684767124781, Final residual = 5.8124823008e-05, No Iterations 4
smoothSolver:  Solving for Uz, Initial residual = 0.000228399740833, Final residual = 1.91495494584e-05, No Iterations 4
GAMG:  Solving for p, Initial residual = 0.00371250237176, Final residual = 0.000121196810538, No Iterations 5
time step continuity errors : sum local = 0.000130326795179, global = 7.59480250078e-07, cumulative = 0.00633011053188
ExecutionTime = 3.81 s  ClockTime = 4 s

Time = 49

smoothSolver:  Solving for Ux, Initial residual = 0.000619746859117, Final residual = 5.42492586053e-05, No Iterations 4
smoothSolver:  Solving for Uy, Initial residual = 0.000671502707384, Final residual = 5.70408368983e-05, No Iterations 4
smoothSolver:  Solving for Uz, Initial residual = 0.000224975022777, Final residual = 1.88761886656e-05, No Iterations 4
GAMG:  Solving for p, Initial residual = 0.00338214668251, Final residual = 0.000130566536225, No Iterations 4
time step continuity errors : sum local = 0.000139211463262, global = 2.18890273195e-07, cumulative = 0.00633032942215
ExecutionTime = 3.89 s  ClockTime = 4 s

Time = 50

smoothSolver:  Solving for Ux, Initial residual = 0.000613905605654, Final residual = 5.37687293874e-05, No Iterations 4
smoothSolver:  Solving for Uy, Initial residual = 0.000658963653489, Final residual = 5.60349732624e-05, No Iterations 4
smoothSolver:  Solving for Uz, Initial residual = 0.000221781277346, Final residual = 1.86222803166e-05, No Iterations 4
GAMG:  Solving for p, Initial residual = 0.00307979491979, Final residual = 0.000147039411306, No Iterations 3
time step continuity errors : sum local = 0.000155544924195, global = 2.82035348995e-06, cumulative = 0.00633314977564
ExecutionTime = 3.96 s  ClockTime = 4 s

Time = 51

smoothSolver:  Solving for Ux, Initial residual = 0.00060818413462, Final residual = 5.32967436132e-05, No Iterations 4
smoothSolver:  Solving for Uy, Initial residual = 0.000646941744196, Final residual = 5.50553540967e-05, No Iterations 4
smoothSolver:  Solving for Uz, Initial residual = 0.000218745398437, Final residual = 1.83813608588e-05, No Iterations 4
GAMG:  Solving for p, Initial residual = 0.00283059757268, Final residual = 0.000123191620731, No Iterations 4
time step continuity errors : sum local = 0.000129364248243, global = 4.9000655715e-07, cumulative = 0.0063336397822
ExecutionTime = 4.03 s  ClockTime = 4 s

Time = 52

smoothSolver:  Solving for Ux, Initial residual = 0.000602581240667, Final residual = 5.28331964399e-05, No Iterations 4
smoothSolver:  Solving for Uy, Initial residual = 0.000634060746752, Final residual = 5.40044962176e-05, No Iterations 4
smoothSolver:  Solving for Uz, Initial residual = 0.000215789278573, Final residual = 1.8146556483e-05, No Iterations 4
GAMG:  Solving for p, Initial residual = 0.00260469967566, Final residual = 8.28242837814e-05, No Iterations 5
time step continuity errors : sum local = 8.63334695308e-05, global = 7.58760090647e-07, cumulative = 0.00633439854229
ExecutionTime = 4.11 s  ClockTime = 4 s

Time = 53

smoothSolver:  Solving for Ux, Initial residual = 0.000597093232237, Final residual = 5.23779812202e-05, No Iterations 4
smoothSolver:  Solving for Uy, Initial residual = 0.000622270794736, Final residual = 5.30419602936e-05, No Iterations 4
smoothSolver:  Solving for Uz, Initial residual = 0.000212929714737, Final residual = 1.79190469347e-05, No Iterations 4
GAMG:  Solving for p, Initial residual = 0.00240077111694, Final residual = 7.65281353063e-05, No Iterations 5
time step continuity errors : sum local = 7.92040963215e-05, global = 7.022432665e-07, cumulative = 0.00633510078556
ExecutionTime = 4.18 s  ClockTime = 4 s

Time = 54

smoothSolver:  Solving for Ux, Initial residual = 0.000591714735317, Final residual = 5.19308341805e-05, No Iterations 4
smoothSolver:  Solving for Uy, Initial residual = 0.000610759363353, Final residual = 5.2102864601e-05, No Iterations 4
smoothSolver:  Solving for Uz, Initial residual = 0.00021013245146, Final residual = 1.76953150725e-05, No Iterations 4
GAMG:  Solving for p, Initial residual = 0.00220971437574, Final residual = 9.80421435436e-05, No Iterations 4
time step continuity errors : sum local = 0.000100790559617, global = 3.42850057306e-07, cumulative = 0.00633544363562
ExecutionTime = 4.25 s  ClockTime = 4 s

Time = 55

smoothSolver:  Solving for Ux, Initial residual = 0.000586440464639, Final residual = 5.14915017494e-05, No Iterations 4
smoothSolver:  Solving for Uy, Initial residual = 0.000599461922492, Final residual = 5.11841587994e-05, No Iterations 4
smoothSolver:  Solving for Uz, Initial residual = 0.000207368123941, Final residual = 1.74735115842e-05, No Iterations 4
GAMG:  Solving for p, Initial residual = 0.00203205590472, Final residual = 9.04607368775e-05, No Iterations 4
time step continuity errors : sum local = 9.24108569445e-05, global = 4.50164036304e-07, cumulative = 0.00633589379965
ExecutionTime = 4.33 s  ClockTime = 4 s

Time = 56

smoothSolver:  Solving for Ux, Initial residual = 0.000581267132266, Final residual = 5.10597361858e-05, No Iterations 4
smoothSolver:  Solving for Uy, Initial residual = 0.000588988478963, Final residual = 5.03284493875e-05, No Iterations 4
smoothSolver:  Solving for Uz, Initial residual = 0.000204626243881, Final residual = 1.72529576769e-05, No Iterations 4
GAMG:  Solving for p, Initial residual = 0.00187878543655, Final residual = 9.3379078871e-05, No Iterations 4
time step continuity errors : sum local = 9.48067373573e-05, global = 4.85273319056e-07, cumulative = 0.00633637907297
ExecutionTime = 4.4 s  ClockTime = 5 s

Time = 57

smoothSolver:  Solving for Ux, Initial residual = 0.000576190908816, Final residual = 5.06352834426e-05, No Iterations 4
smoothSolver:  Solving for Uy, Initial residual = 0.000578995878617, Final residual = 4.95065484167e-05, No Iterations 4
smoothSolver:  Solving for Uz, Initial residual = 0.000201906100935, Final residual = 1.7033649677e-05, No Iterations 4
GAMG:  Solving for p, Initial residual = 0.00174285461431, Final residual = 5.93582257768e-05, No Iterations 5
time step continuity errors : sum local = 5.99041144636e-05, global = 6.46397179999e-07, cumulative = 0.00633702547015
ExecutionTime = 4.47 s  ClockTime = 5 s

Time = 58

smoothSolver:  Solving for Ux, Initial residual = 0.000571208755572, Final residual = 5.02178972443e-05, No Iterations 4
smoothSolver:  Solving for Uy, Initial residual = 0.000569492589917, Final residual = 4.87198554486e-05, No Iterations 4
smoothSolver:  Solving for Uz, Initial residual = 0.00019919751705, Final residual = 1.68150077395e-05, No Iterations 4
GAMG:  Solving for p, Initial residual = 0.00161708081761, Final residual = 5.95561892684e-05, No Iterations 5
time step continuity errors : sum local = 5.97459560183e-05, global = 5.89140620698e-07, cumulative = 0.00633761461077
ExecutionTime = 4.55 s  ClockTime = 5 s

Time = 59

smoothSolver:  Solving for Ux, Initial residual = 0.000566318581283, Final residual = 4.98074867173e-05, No Iterations 4
smoothSolver:  Solving for Uy, Initial residual = 0.000560117818736, Final residual = 4.79347835634e-05, No Iterations 4
smoothSolver:  Solving for Uz, Initial residual = 0.000196542703747, Final residual = 1.66001734646e-05, No Iterations 4
GAMG:  Solving for p, Initial residual = 0.00150269530517, Final residual = 5.2963621254e-05, No Iterations 5
time step continuity errors : sum local = 5.28310022379e-05, global = 5.48793857368e-07, cumulative = 0.00633816340463
ExecutionTime = 4.63 s  ClockTime = 5 s

Time = 60

smoothSolver:  Solving for Ux, Initial residual = 0.000561519015047, Final residual = 4.94039803366e-05, No Iterations 4
smoothSolver:  Solving for Uy, Initial residual = 0.000550914124276, Final residual = 4.71643373508e-05, No Iterations 4
smoothSolver:  Solving for Uz, Initial residual = 0.000193954651751, Final residual = 1.6390270608e-05, No Iterations 4
GAMG:  Solving for p, Initial residual = 0.0013942381996, Final residual = 4.3115255452e-05, No Iterations 5
time step continuity errors : sum local = 4.27747299167e-05, global = 5.05001823367e-07, cumulative = 0.00633866840645
ExecutionTime = 4.7 s  ClockTime = 5 s

Time = 61

smoothSolver:  Solving for Ux, Initial residual = 0.0005568090097, Final residual = 4.90073202141e-05, No Iterations 4
smoothSolver:  Solving for Uy, Initial residual = 0.000541986641495, Final residual = 4.64182212808e-05, No Iterations 4
smoothSolver:  Solving for Uz, Initial residual = 0.000191442448653, Final residual = 1.61856475059e-05, No Iterations 4
GAMG:  Solving for p, Initial residual = 0.00129284918324, Final residual = 3.42740273624e-05, No Iterations 5
time step continuity errors : sum local = 3.38270745043e-05, global = 4.50007013379e-07, cumulative = 0.00633911841347
ExecutionTime = 4.77 s  ClockTime = 5 s

Time = 62

smoothSolver:  Solving for Ux, Initial residual = 0.000552186701075, Final residual = 4.86174370633e-05, No Iterations 4
smoothSolver:  Solving for Uy, Initial residual = 0.000533389824932, Final residual = 4.56961552034e-05, No Iterations 4
smoothSolver:  Solving for Uz, Initial residual = 0.000189002466938, Final residual = 1.59863554038e-05, No Iterations 4
GAMG:  Solving for p, Initial residual = 0.00120101937353, Final residual = 2.86430657246e-05, No Iterations 5
time step continuity errors : sum local = 2.81283897941e-05, global = 4.11329401969e-07, cumulative = 0.00633952974287
ExecutionTime = 4.85 s  ClockTime = 5 s

Time = 63

smoothSolver:  Solving for Ux, Initial residual = 0.000547650214266, Final residual = 4.82342213439e-05, No Iterations 4
smoothSolver:  Solving for Uy, Initial residual = 0.000525019598975, Final residual = 4.49939743587e-05, No Iterations 4
smoothSolver:  Solving for Uz, Initial residual = 0.000186620408614, Final residual = 1.57918087874e-05, No Iterations 4
GAMG:  Solving for p, Initial residual = 0.00111864485902, Final residual = 2.64564525345e-05, No Iterations 5
time step continuity errors : sum local = 2.58552973971e-05, global = 3.87811990094e-07, cumulative = 0.00633991755486
ExecutionTime = 4.92 s  ClockTime = 5 s

Time = 64

smoothSolver:  Solving for Ux, Initial residual = 0.000543196634572, Final residual = 4.78574982036e-05, No Iterations 4
smoothSolver:  Solving for Uy, Initial residual = 0.000516839713877, Final residual = 4.43081012402e-05, No Iterations 4
smoothSolver:  Solving for Uz, Initial residual = 0.000184289307148, Final residual = 1.56014376109e-05, No Iterations 4
GAMG:  Solving for p, Initial residual = 0.00104359795038, Final residual = 2.5647618847e-05, No Iterations 5
time step continuity errors : sum local = 2.49468281345e-05, global = 3.67038882616e-07, cumulative = 0.00634028459374
ExecutionTime = 4.99 s  ClockTime = 5 s

Time = 65

smoothSolver:  Solving for Ux, Initial residual = 0.000538823189409, Final residual = 4.74870853405e-05, No Iterations 4
smoothSolver:  Solving for Uy, Initial residual = 0.000508860866868, Final residual = 4.36378136661e-05, No Iterations 4
smoothSolver:  Solving for Uz, Initial residual = 0.000182004018162, Final residual = 1.54146971625e-05, No Iterations 4
GAMG:  Solving for p, Initial residual = 0.000974772350433, Final residual = 2.49956597183e-05, No Iterations 5
time step continuity errors : sum local = 2.42010822031e-05, global = 3.44684318014e-07, cumulative = 0.00634062927806
ExecutionTime = 5.07 s  ClockTime = 5 s

Time = 66

smoothSolver:  Solving for Ux, Initial residual = 0.000534527157605, Final residual = 4.71227732356e-05, No Iterations 4
smoothSolver:  Solving for Uy, Initial residual = 0.000501082381753, Final residual = 4.29840124069e-05, No Iterations 4
smoothSolver:  Solving for Uz, Initial residual = 0.000179758923039, Final residual = 1.52312242246e-05, No Iterations 4
GAMG:  Solving for p, Initial residual = 0.000912102950105, Final residual = 2.47186471025e-05, No Iterations 5
time step continuity errors : sum local = 2.38255552725e-05, global = 3.19484037304e-07, cumulative = 0.0063409487621
ExecutionTime = 5.15 s  ClockTime = 5 s

Time = 67

smoothSolver:  Solving for Ux, Initial residual = 0.00053030592905, Final residual = 4.67643883512e-05, No Iterations 4
smoothSolver:  Solving for Uy, Initial residual = 0.000493517707598, Final residual = 4.23470219147e-05, No Iterations 4
smoothSolver:  Solving for Uz, Initial residual = 0.000177552202008, Final residual = 1.5050634079e-05, No Iterations 4
GAMG:  Solving for p, Initial residual = 0.000854691562487, Final residual = 2.5780445149e-05, No Iterations 5
time step continuity errors : sum local = 2.47399860711e-05, global = 3.0007862152e-07, cumulative = 0.00634124884072
ExecutionTime = 5.22 s  ClockTime = 5 s

Time = 68

smoothSolver:  Solving for Ux, Initial residual = 0.000526156789688, Final residual = 4.64117376046e-05, No Iterations 4
smoothSolver:  Solving for Uy, Initial residual = 0.00048615634797, Final residual = 4.17269730692e-05, No Iterations 4
smoothSolver:  Solving for Uz, Initial residual = 0.000175382266145, Final residual = 1.48728066494e-05, No Iterations 4
GAMG:  Solving for p, Initial residual = 0.000802346679348, Final residual = 2.63153168309e-05, No Iterations 5
time step continuity errors : sum local = 2.51448561034e-05, global = 2.89983581251e-07, cumulative = 0.0063415388243
ExecutionTime = 5.29 s  ClockTime = 5 s

Time = 69

smoothSolver:  Solving for Ux, Initial residual = 0.000522077750318, Final residual = 4.60646487685e-05, No Iterations 4
smoothSolver:  Solving for Uy, Initial residual = 0.000478988169048, Final residual = 4.11229201883e-05, No Iterations 4
smoothSolver:  Solving for Uz, Initial residual = 0.000173247768352, Final residual = 1.46977074976e-05, No Iterations 4
GAMG:  Solving for p, Initial residual = 0.000754684585125, Final residual = 2.67921268412e-05, No Iterations 5
time step continuity errors : sum local = 2.54928827531e-05, global = 2.78680004718e-07, cumulative = 0.0063418175043
ExecutionTime = 5.36 s  ClockTime = 6 s

Time = 70

smoothSolver:  Solving for Ux, Initial residual = 0.000518066610673, Final residual = 4.57229692316e-05, No Iterations 4
smoothSolver:  Solving for Uy, Initial residual = 0.000472004554428, Final residual = 4.05345198071e-05, No Iterations 4
smoothSolver:  Solving for Uz, Initial residual = 0.00017115106354, Final residual = 1.4525415285e-05, No Iterations 4
GAMG:  Solving for p, Initial residual = 0.000710984141274, Final residual = 2.634539048e-05, No Iterations 5
time step continuity errors : sum local = 2.49646510226e-05, global = 2.71633329114e-07, cumulative = 0.00634208913763
ExecutionTime = 5.43 s  ClockTime = 6 s

Time = 71

smoothSolver:  Solving for Ux, Initial residual = 0.000514121482152, Final residual = 4.53865623563e-05, No Iterations 4
smoothSolver:  Solving for Uy, Initial residual = 0.000465198811436, Final residual = 3.9960094396e-05, No Iterations 4
smoothSolver:  Solving for Uz, Initial residual = 0.0001690968774, Final residual = 1.43560318928e-05, No Iterations 4
GAMG:  Solving for p, Initial residual = 0.000670515789536, Final residual = 2.53434556118e-05, No Iterations 5
time step continuity errors : sum local = 2.3918474968e-05, global = 2.63481854981e-07, cumulative = 0.00634235261949
ExecutionTime = 5.51 s  ClockTime = 6 s

Time = 72

smoothSolver:  Solving for Ux, Initial residual = 0.000510240765212, Final residual = 4.50553110382e-05, No Iterations 4
smoothSolver:  Solving for Uy, Initial residual = 0.000458558839386, Final residual = 3.93989556257e-05, No Iterations 4
smoothSolver:  Solving for Uz, Initial residual = 0.000167079814284, Final residual = 1.41896571882e-05, No Iterations 4
GAMG:  Solving for p, Initial residual = 0.000633107538992, Final residual = 2.38548514785e-05, No Iterations 5
time step continuity errors : sum local = 2.24247334116e-05, global = 2.59676917303e-07, cumulative = 0.00634261229641
ExecutionTime = 5.58 s  ClockTime = 6 s

Time = 73

smoothSolver:  Solving for Ux, Initial residual = 0.000506422742821, Final residual = 4.47290931991e-05, No Iterations 4
smoothSolver:  Solving for Uy, Initial residual = 0.000452076715619, Final residual = 3.88506667638e-05, No Iterations 4
smoothSolver:  Solving for Uz, Initial residual = 0.000165100889822, Final residual = 1.40262247316e-05, No Iterations 4
GAMG:  Solving for p, Initial residual = 0.000598736985196, Final residual = 2.28714625908e-05, No Iterations 5
time step continuity errors : sum local = 2.14172087188e-05, global = 2.45090694805e-07, cumulative = 0.0063428573871
ExecutionTime = 5.65 s  ClockTime = 6 s

Time = 74

smoothSolver:  Solving for Ux, Initial residual = 0.000502665799515, Final residual = 4.44077903997e-05, No Iterations 4
smoothSolver:  Solving for Uy, Initial residual = 0.000445732431376, Final residual = 3.83140914849e-05, No Iterations 4
smoothSolver:  Solving for Uz, Initial residual = 0.00016315965281, Final residual = 1.38658733863e-05, No Iterations 4
GAMG:  Solving for p, Initial residual = 0.000567305283462, Final residual = 2.19536963834e-05, No Iterations 5
time step continuity errors : sum local = 2.04798947171e-05, global = 2.39344944021e-07, cumulative = 0.00634309673204
ExecutionTime = 5.72 s  ClockTime = 6 s

Time = 75

smoothSolver:  Solving for Ux, Initial residual = 0.000498968563992, Final residual = 4.40912977992e-05, No Iterations 4
smoothSolver:  Solving for Uy, Initial residual = 0.000439524785378, Final residual = 3.77893932844e-05, No Iterations 4
smoothSolver:  Solving for Uz, Initial residual = 0.000161253601229, Final residual = 1.3708424875e-05, No Iterations 4
GAMG:  Solving for p, Initial residual = 0.000538551969603, Final residual = 2.13082183955e-05, No Iterations 5
time step continuity errors : sum local = 1.9803878853e-05, global = 2.36108465311e-07, cumulative = 0.00634333284051
ExecutionTime = 5.79 s  ClockTime = 6 s

Time = 76

smoothSolver:  Solving for Ux, Initial residual = 0.000495329244843, Final residual = 4.37794865967e-05, No Iterations 4
smoothSolver:  Solving for Uy, Initial residual = 0.000433451519523, Final residual = 3.72758334515e-05, No Iterations 4
smoothSolver:  Solving for Uz, Initial residual = 0.000159381488617, Final residual = 1.35537864588e-05, No Iterations 4
GAMG:  Solving for p, Initial residual = 0.000512144421391, Final residual = 2.09237868588e-05, No Iterations 5
time step continuity errors : sum local = 1.93756114563e-05, global = 2.35439652108e-07, cumulative = 0.00634356828016
ExecutionTime = 5.86 s  ClockTime = 6 s

Time = 77

smoothSolver:  Solving for Ux, Initial residual = 0.000491746257065, Final residual = 4.34722398457e-05, No Iterations 4
smoothSolver:  Solving for Uy, Initial residual = 0.000427511999104, Final residual = 3.67734334186e-05, No Iterations 4
smoothSolver:  Solving for Uz, Initial residual = 0.000157542277174, Final residual = 1.34019077131e-05, No Iterations 4
GAMG:  Solving for p, Initial residual = 0.000487958504423, Final residual = 2.06987732425e-05, No Iterations 5
time step continuity errors : sum local = 1.90984725017e-05, global = 2.38464436754e-07, cumulative = 0.0063438067446
ExecutionTime = 5.94 s  ClockTime = 6 s

Time = 78

smoothSolver:  Solving for Ux, Initial residual = 0.000488218119468, Final residual = 4.31694432726e-05, No Iterations 4
smoothSolver:  Solving for Uy, Initial residual = 0.000421699640184, Final residual = 3.6282046306e-05, No Iterations 4
smoothSolver:  Solving for Uz, Initial residual = 0.000155735193606, Final residual = 1.32528202845e-05, No Iterations 4
GAMG:  Solving for p, Initial residual = 0.000465650460482, Final residual = 2.05721622395e-05, No Iterations 5
time step continuity errors : sum local = 1.89146559177e-05, global = 2.41434393283e-07, cumulative = 0.00634404817899
ExecutionTime = 6.01 s  ClockTime = 6 s

Time = 79

smoothSolver:  Solving for Ux, Initial residual = 0.000484743274843, Final residual = 4.28709764649e-05, No Iterations 4
smoothSolver:  Solving for Uy, Initial residual = 0.000416016902776, Final residual = 3.58010659216e-05, No Iterations 4
smoothSolver:  Solving for Uz, Initial residual = 0.000153959652688, Final residual = 1.31063122779e-05, No Iterations 4
GAMG:  Solving for p, Initial residual = 0.000445106196613, Final residual = 2.04326477448e-05, No Iterations 5
time step continuity errors : sum local = 1.8721097256e-05, global = 2.43565970085e-07, cumulative = 0.00634429174496
ExecutionTime = 6.08 s  ClockTime = 6 s

Time = 80

smoothSolver:  Solving for Ux, Initial residual = 0.000481321691085, Final residual = 4.25767415846e-05, No Iterations 4
smoothSolver:  Solving for Uy, Initial residual = 0.000410456929318, Final residual = 3.53303731906e-05, No Iterations 4
smoothSolver:  Solving for Uz, Initial residual = 0.000152214806116, Final residual = 1.29622731792e-05, No Iterations 4
GAMG:  Solving for p, Initial residual = 0.000426080958667, Final residual = 2.02953652954e-05, No Iterations 5
time step continuity errors : sum local = 1.85316645261e-05, global = 2.49956485286e-07, cumulative = 0.00634454170145
ExecutionTime = 6.14 s  ClockTime = 6 s

Time = 81

smoothSolver:  Solving for Ux, Initial residual = 0.000477951960246, Final residual = 4.2286634543e-05, No Iterations 4
smoothSolver:  Solving for Uy, Initial residual = 0.000405014347887, Final residual = 3.48695113406e-05, No Iterations 4
smoothSolver:  Solving for Uz, Initial residual = 0.000150501214535, Final residual = 1.28206403474e-05, No Iterations 4
GAMG:  Solving for p, Initial residual = 0.000408618130149, Final residual = 1.91422245506e-05, No Iterations 5
time step continuity errors : sum local = 1.74198427843e-05, global = 2.7028913716e-07, cumulative = 0.00634481199058
ExecutionTime = 6.21 s  ClockTime = 6 s

Time = 82

smoothSolver:  Solving for Ux, Initial residual = 0.000474632228616, Final residual = 4.20005457035e-05, No Iterations 4
smoothSolver:  Solving for Uy, Initial residual = 0.000399689015702, Final residual = 3.44185455227e-05, No Iterations 4
smoothSolver:  Solving for Uz, Initial residual = 0.000148820769027, Final residual = 1.26813316041e-05, No Iterations 4
GAMG:  Solving for p, Initial residual = 0.000392282038197, Final residual = 1.87479383924e-05, No Iterations 5
time step continuity errors : sum local = 1.70043636194e-05, global = 2.73154911083e-07, cumulative = 0.0063450851455
ExecutionTime = 6.28 s  ClockTime = 6 s

Time = 83

smoothSolver:  Solving for Ux, Initial residual = 0.00047136104459, Final residual = 4.17184633869e-05, No Iterations 4
smoothSolver:  Solving for Uy, Initial residual = 0.000394467435408, Final residual = 3.39764355552e-05, No Iterations 4
smoothSolver:  Solving for Uz, Initial residual = 0.000147172764583, Final residual = 1.25443715223e-05, No Iterations 4
GAMG:  Solving for p, Initial residual = 0.000377082339079, Final residual = 1.84063512139e-05, No Iterations 5
time step continuity errors : sum local = 1.66399764121e-05, global = 2.76462010289e-07, cumulative = 0.00634536160751
ExecutionTime = 6.34 s  ClockTime = 6 s

Time = 84

smoothSolver:  Solving for Ux, Initial residual = 0.0004681370052, Final residual = 4.14403101612e-05, No Iterations 4
smoothSolver:  Solving for Uy, Initial residual = 0.000389350270878, Final residual = 3.35435451721e-05, No Iterations 4
smoothSolver:  Solving for Uz, Initial residual = 0.000145553051389, Final residual = 1.24096077593e-05, No Iterations 4
GAMG:  Solving for p, Initial residual = 0.000362976341723, Final residual = 1.80264726951e-05, No Iterations 5
time step continuity errors : sum local = 1.62440893532e-05, global = 2.77157247657e-07, cumulative = 0.00634563876475
ExecutionTime = 6.42 s  ClockTime = 7 s

Time = 85

smoothSolver:  Solving for Ux, Initial residual = 0.000464958841403, Final residual = 4.11659570685e-05, No Iterations 4
smoothSolver:  Solving for Uy, Initial residual = 0.000384334236973, Final residual = 3.31192585731e-05, No Iterations 4
smoothSolver:  Solving for Uz, Initial residual = 0.000143961687075, Final residual = 1.22770260774e-05, No Iterations 4
GAMG:  Solving for p, Initial residual = 0.000349910916926, Final residual = 9.52631751369e-06, No Iterations 7
time step continuity errors : sum local = 8.55714550665e-06, global = 7.42374039945e-08, cumulative = 0.00634571300216
ExecutionTime = 6.5 s  ClockTime = 7 s

Time = 86

smoothSolver:  Solving for Ux, Initial residual = 0.00046182517214, Final residual = 4.08952766278e-05, No Iterations 4
smoothSolver:  Solving for Uy, Initial residual = 0.000379445413338, Final residual = 3.27059070188e-05, No Iterations 4
smoothSolver:  Solving for Uz, Initial residual = 0.000142393431768, Final residual = 1.21462927008e-05, No Iterations 4
GAMG:  Solving for p, Initial residual = 0.000337196389716, Final residual = 1.62012246083e-05, No Iterations 5
time step continuity errors : sum local = 1.45065162724e-05, global = 2.31721594073e-07, cumulative = 0.00634594472375
ExecutionTime = 6.57 s  ClockTime = 7 s

Time = 87

smoothSolver:  Solving for Ux, Initial residual = 0.000458735288857, Final residual = 4.0628222173e-05, No Iterations 4
smoothSolver:  Solving for Uy, Initial residual = 0.000374598371076, Final residual = 3.22943053495e-05, No Iterations 4
smoothSolver:  Solving for Uz, Initial residual = 0.000140860445055, Final residual = 1.20184788502e-05, No Iterations 4
GAMG:  Solving for p, Initial residual = 0.000325967068751, Final residual = 8.95113891837e-06, No Iterations 7
time step continuity errors : sum local = 7.99058062183e-06, global = 7.24090289849e-08, cumulative = 0.00634601713278
ExecutionTime = 6.64 s  ClockTime = 7 s

Time = 88

smoothSolver:  Solving for Ux, Initial residual = 0.000455687717235, Final residual = 4.03646645598e-05, No Iterations 4
smoothSolver:  Solving for Uy, Initial residual = 0.000369905634612, Final residual = 3.18973279123e-05, No Iterations 4
smoothSolver:  Solving for Uz, Initial residual = 0.000139344951735, Final residual = 1.1892174199e-05, No Iterations 4
GAMG:  Solving for p, Initial residual = 0.000315178083366, Final residual = 8.15572977137e-06, No Iterations 7
time step continuity errors : sum local = 7.2581404725e-06, global = 6.86355914686e-08, cumulative = 0.00634608576837
ExecutionTime = 6.72 s  ClockTime = 7 s

Time = 89

smoothSolver:  Solving for Ux, Initial residual = 0.000452681589247, Final residual = 4.01045488813e-05, No Iterations 4
smoothSolver:  Solving for Uy, Initial residual = 0.000365279649673, Final residual = 3.15054202697e-05, No Iterations 4
smoothSolver:  Solving for Uz, Initial residual = 0.000137857690078, Final residual = 1.17682169708e-05, No Iterations 4
GAMG:  Solving for p, Initial residual = 0.000304985257401, Final residual = 1.30298279943e-05, No Iterations 5
time step continuity errors : sum local = 1.15610037191e-05, global = 1.57949282016e-07, cumulative = 0.00634624371765
ExecutionTime = 6.79 s  ClockTime = 7 s

Time = 90

smoothSolver:  Solving for Ux, Initial residual = 0.000449716157655, Final residual = 3.98478072676e-05, No Iterations 4
smoothSolver:  Solving for Uy, Initial residual = 0.000360698165162, Final residual = 3.1116885741e-05, No Iterations 4
smoothSolver:  Solving for Uz, Initial residual = 0.000136399789239, Final residual = 1.16466912778e-05, No Iterations 4
GAMG:  Solving for p, Initial residual = 0.000295900017369, Final residual = 1.37628920474e-05, No Iterations 5
time step continuity errors : sum local = 1.21761554413e-05, global = 1.86732203105e-07, cumulative = 0.00634643044986
ExecutionTime = 6.86 s  ClockTime = 7 s

Time = 91

smoothSolver:  Solving for Ux, Initial residual = 0.000446790158411, Final residual = 3.95943397983e-05, No Iterations 4
smoothSolver:  Solving for Uy, Initial residual = 0.000356264263484, Final residual = 3.07419929302e-05, No Iterations 4
smoothSolver:  Solving for Uz, Initial residual = 0.000134961315039, Final residual = 1.15266901838e-05, No Iterations 4
GAMG:  Solving for p, Initial residual = 0.000287541913522, Final residual = 8.19682930466e-06, No Iterations 7
time step continuity errors : sum local = 7.23066009041e-06, global = 5.8917910412e-08, cumulative = 0.00634648936777
ExecutionTime = 6.94 s  ClockTime = 7 s

Time = 92

smoothSolver:  Solving for Ux, Initial residual = 0.00044390247688, Final residual = 3.93440484722e-05, No Iterations 4
smoothSolver:  Solving for Uy, Initial residual = 0.000351954440846, Final residual = 3.03782575597e-05, No Iterations 4
smoothSolver:  Solving for Uz, Initial residual = 0.000133540360494, Final residual = 1.14081524314e-05, No Iterations 4
GAMG:  Solving for p, Initial residual = 0.000279223467601, Final residual = 1.35480480118e-05, No Iterations 5
time step continuity errors : sum local = 1.19154672381e-05, global = 1.87906523799e-07, cumulative = 0.00634667727429
ExecutionTime = 7.01 s  ClockTime = 7 s

Time = 93

smoothSolver:  Solving for Ux, Initial residual = 0.00044105259633, Final residual = 3.90969051663e-05, No Iterations 4
smoothSolver:  Solving for Uy, Initial residual = 0.000347616549399, Final residual = 3.00096623575e-05, No Iterations 4
smoothSolver:  Solving for Uz, Initial residual = 0.000132151965427, Final residual = 1.12924055585e-05, No Iterations 4
GAMG:  Solving for p, Initial residual = 0.000271231833781, Final residual = 7.57993561471e-06, No Iterations 7
time step continuity errors : sum local = 6.64782071424e-06, global = 5.31684746697e-08, cumulative = 0.00634673044277
ExecutionTime = 7.08 s  ClockTime = 7 s

Time = 94

smoothSolver:  Solving for Ux, Initial residual = 0.000438239619901, Final residual = 3.88528011659e-05, No Iterations 4
smoothSolver:  Solving for Uy, Initial residual = 0.000343456293591, Final residual = 2.96574688812e-05, No Iterations 4
smoothSolver:  Solving for Uz, Initial residual = 0.000130778811349, Final residual = 1.11780070425e-05, No Iterations 4
GAMG:  Solving for p, Initial residual = 0.000263784442072, Final residual = 1.28914180423e-05, No Iterations 5
time step continuity errors : sum local = 1.12736741657e-05, global = 1.87552785414e-07, cumulative = 0.00634691799555
ExecutionTime = 7.16 s  ClockTime = 7 s

Time = 95

smoothSolver:  Solving for Ux, Initial residual = 0.000435462624216, Final residual = 3.8611718773e-05, No Iterations 4
smoothSolver:  Solving for Uy, Initial residual = 0.000339291995717, Final residual = 2.93031435826e-05, No Iterations 4
smoothSolver:  Solving for Uz, Initial residual = 0.000129435758183, Final residual = 1.10661368275e-05, No Iterations 4
GAMG:  Solving for p, Initial residual = 0.000256799667891, Final residual = 7.2015051714e-06, No Iterations 7
time step continuity errors : sum local = 6.28064676771e-06, global = 4.99681140292e-08, cumulative = 0.00634696796366
ExecutionTime = 7.23 s  ClockTime = 7 s

Time = 96

smoothSolver:  Solving for Ux, Initial residual = 0.000432720526799, Final residual = 3.83735509039e-05, No Iterations 4
smoothSolver:  Solving for Uy, Initial residual = 0.000335293374122, Final residual = 2.89647342701e-05, No Iterations 4
smoothSolver:  Solving for Uz, Initial residual = 0.00012810893528, Final residual = 1.09555485605e-05, No Iterations 4
GAMG:  Solving for p, Initial residual = 0.000250106611066, Final residual = 6.52533805231e-06, No Iterations 7
time step continuity errors : sum local = 5.67502701944e-06, global = 5.11104755836e-08, cumulative = 0.00634701907414
ExecutionTime = 7.31 s  ClockTime = 7 s

Time = 97

smoothSolver:  Solving for Ux, Initial residual = 0.000430012355299, Final residual = 3.81382558372e-05, No Iterations 4
smoothSolver:  Solving for Uy, Initial residual = 0.000331319427567, Final residual = 2.86273238123e-05, No Iterations 4
smoothSolver:  Solving for Uz, Initial residual = 0.000126808080689, Final residual = 1.08470475727e-05, No Iterations 4
GAMG:  Solving for p, Initial residual = 0.000243467760895, Final residual = 1.20268350989e-05, No Iterations 5
time step continuity errors : sum local = 1.0431194745e-05, global = 1.88786213291e-07, cumulative = 0.00634720786035
ExecutionTime = 7.38 s  ClockTime = 8 s

Time = 98

smoothSolver:  Solving for Ux, Initial residual = 0.000427338015941, Final residual = 3.79057909733e-05, No Iterations 4
smoothSolver:  Solving for Uy, Initial residual = 0.000327369768065, Final residual = 2.82911600335e-05, No Iterations 4
smoothSolver:  Solving for Uz, Initial residual = 0.000125532842597, Final residual = 1.07407182306e-05, No Iterations 4
GAMG:  Solving for p, Initial residual = 0.000237809436449, Final residual = 6.89250810894e-06, No Iterations 7
time step continuity errors : sum local = 5.96246722277e-06, global = 4.42038576742e-08, cumulative = 0.00634725206421
ExecutionTime = 7.45 s  ClockTime = 8 s

Time = 99

smoothSolver:  Solving for Ux, Initial residual = 0.000424696512824, Final residual = 3.76760638527e-05, No Iterations 4
smoothSolver:  Solving for Uy, Initial residual = 0.000323608206644, Final residual = 2.79712218554e-05, No Iterations 4
smoothSolver:  Solving for Uz, Initial residual = 0.000124272146701, Final residual = 1.06355979487e-05, No Iterations 4
GAMG:  Solving for p, Initial residual = 0.000232239585722, Final residual = 6.35181766425e-06, No Iterations 7
time step continuity errors : sum local = 5.47992206794e-06, global = 4.45316501095e-08, cumulative = 0.00634729659586
ExecutionTime = 7.53 s  ClockTime = 8 s

Time = 100

smoothSolver:  Solving for Ux, Initial residual = 0.000422087253159, Final residual = 3.74490450676e-05, No Iterations 4
smoothSolver:  Solving for Uy, Initial residual = 0.000319869402461, Final residual = 2.76522169637e-05, No Iterations 4
smoothSolver:  Solving for Uz, Initial residual = 0.000123034850639, Final residual = 1.05323732884e-05, No Iterations 4
GAMG:  Solving for p, Initial residual = 0.000226721253419, Final residual = 6.01596731635e-06, No Iterations 7
time step continuity errors : sum local = 5.17651866317e-06, global = 4.1176772805e-08, cumulative = 0.00634733777263
ExecutionTime = 7.61 s  ClockTime = 8 s

Time = 101

smoothSolver:  Solving for Ux, Initial residual = 0.000419509608075, Final residual = 3.72246758215e-05, No Iterations 4
smoothSolver:  Solving for Uy, Initial residual = 0.000316181912073, Final residual = 2.73372924205e-05, No Iterations 4
smoothSolver:  Solving for Uz, Initial residual = 0.00012181900543, Final residual = 1.0430879919e-05, No Iterations 4
GAMG:  Solving for p, Initial residual = 0.000221513773118, Final residual = 5.8755460095e-06, No Iterations 7
time step continuity errors : sum local = 5.04265464394e-06, global = 3.98318159472e-08, cumulative = 0.00634737760445
ExecutionTime = 7.71 s  ClockTime = 8 s

Time = 102

smoothSolver:  Solving for Ux, Initial residual = 0.000416962911001, Final residual = 3.70029064181e-05, No Iterations 4
smoothSolver:  Solving for Uy, Initial residual = 0.000312566115627, Final residual = 2.70284818446e-05, No Iterations 4
smoothSolver:  Solving for Uz, Initial residual = 0.000120623584439, Final residual = 1.03310620586e-05, No Iterations 4
GAMG:  Solving for p, Initial residual = 0.000216657548807, Final residual = 5.82272177137e-06, No Iterations 7
time step continuity errors : sum local = 4.98461026729e-06, global = 3.87057777524e-08, cumulative = 0.00634741631023
ExecutionTime = 7.78 s  ClockTime = 8 s

Time = 103

smoothSolver:  Solving for Ux, Initial residual = 0.000414446608679, Final residual = 3.67836946132e-05, No Iterations 4
smoothSolver:  Solving for Uy, Initial residual = 0.000309021196757, Final residual = 2.67254901685e-05, No Iterations 4
smoothSolver:  Solving for Uz, Initial residual = 0.000119447712906, Final residual = 1.02329043405e-05, No Iterations 4
GAMG:  Solving for p, Initial residual = 0.000211986573424, Final residual = 5.79091357862e-06, No Iterations 7
time step continuity errors : sum local = 4.94490533169e-06, global = 3.70163154042e-08, cumulative = 0.00634745332654
ExecutionTime = 7.85 s  ClockTime = 8 s

Time = 104

smoothSolver:  Solving for Ux, Initial residual = 0.000411960059591, Final residual = 3.65669861436e-05, No Iterations 4
smoothSolver:  Solving for Uy, Initial residual = 0.000305537903979, Final residual = 2.64279702125e-05, No Iterations 4
smoothSolver:  Solving for Uz, Initial residual = 0.000118291297284, Final residual = 1.01363640302e-05, No Iterations 4
GAMG:  Solving for p, Initial residual = 0.000207471765037, Final residual = 5.75198127861e-06, No Iterations 7
time step continuity errors : sum local = 4.89941932042e-06, global = 3.48256671493e-08, cumulative = 0.00634748815221
ExecutionTime = 7.93 s  ClockTime = 8 s

Time = 105

smoothSolver:  Solving for Ux, Initial residual = 0.000409502735867, Final residual = 3.63527345544e-05, No Iterations 4
smoothSolver:  Solving for Uy, Initial residual = 0.000302111115109, Final residual = 2.61353042232e-05, No Iterations 4
smoothSolver:  Solving for Uz, Initial residual = 0.00011715387144, Final residual = 1.00413427601e-05, No Iterations 4
GAMG:  Solving for p, Initial residual = 0.000203082414398, Final residual = 5.69838599213e-06, No Iterations 7
time step continuity errors : sum local = 4.84179511552e-06, global = 3.25134514283e-08, cumulative = 0.00634752066566
ExecutionTime = 8 s  ClockTime = 8 s

Time = 106

smoothSolver:  Solving for Ux, Initial residual = 0.000407074038727, Final residual = 3.61408974048e-05, No Iterations 4
smoothSolver:  Solving for Uy, Initial residual = 0.000298739915127, Final residual = 2.58474886675e-05, No Iterations 4
smoothSolver:  Solving for Uz, Initial residual = 0.00011603533009, Final residual = 9.94784828232e-06, No Iterations 4
GAMG:  Solving for p, Initial residual = 0.000198854351152, Final residual = 5.63169409494e-06, No Iterations 7
time step continuity errors : sum local = 4.77345363785e-06, global = 3.03806439367e-08, cumulative = 0.00634755104631
ExecutionTime = 8.07 s  ClockTime = 8 s

Time = 107

smoothSolver:  Solving for Ux, Initial residual = 0.000404673429703, Final residual = 3.59314290679e-05, No Iterations 4
smoothSolver:  Solving for Uy, Initial residual = 0.000295423877737, Final residual = 2.55644302607e-05, No Iterations 4
smoothSolver:  Solving for Uz, Initial residual = 0.000114935692282, Final residual = 9.85587704443e-06, No Iterations 4
GAMG:  Solving for p, Initial residual = 0.000194797422595, Final residual = 5.55756527997e-06, No Iterations 7
time step continuity errors : sum local = 4.69926157811e-06, global = 2.83208665227e-08, cumulative = 0.00634757936717
ExecutionTime = 8.15 s  ClockTime = 8 s

Time = 108

smoothSolver:  Solving for Ux, Initial residual = 0.000402300660515, Final residual = 3.57242876002e-05, No Iterations 4
smoothSolver:  Solving for Uy, Initial residual = 0.000292163299408, Final residual = 2.52860900416e-05, No Iterations 4
smoothSolver:  Solving for Uz, Initial residual = 0.000113854049206, Final residual = 9.76539945252e-06, No Iterations 4
GAMG:  Solving for p, Initial residual = 0.00019095861348, Final residual = 5.48275278875e-06, No Iterations 7
time step continuity errors : sum local = 4.62495317823e-06, global = 2.6723169127e-08, cumulative = 0.00634760609034
ExecutionTime = 8.22 s  ClockTime = 8 s

Time = 109

smoothSolver:  Solving for Ux, Initial residual = 0.000399955519714, Final residual = 3.55194352824e-05, No Iterations 4
smoothSolver:  Solving for Uy, Initial residual = 0.000288955727866, Final residual = 2.50122969739e-05, No Iterations 4
smoothSolver:  Solving for Uz, Initial residual = 0.000112789579099, Final residual = 9.67639063676e-06, No Iterations 4
GAMG:  Solving for p, Initial residual = 0.000187268824644, Final residual = 5.41206162016e-06, No Iterations 7
time step continuity errors : sum local = 4.55456676328e-06, global = 2.53065068103e-08, cumulative = 0.00634763139685
ExecutionTime = 8.29 s  ClockTime = 8 s

Time = 110

smoothSolver:  Solving for Ux, Initial residual = 0.000397637214576, Final residual = 3.53168293392e-05, No Iterations 4
smoothSolver:  Solving for Uy, Initial residual = 0.000285800831556, Final residual = 2.47429317797e-05, No Iterations 4
smoothSolver:  Solving for Uz, Initial residual = 0.000111742621974, Final residual = 9.58880257746e-06, No Iterations 4
GAMG:  Solving for p, Initial residual = 0.000183700154505, Final residual = 5.347848187e-06, No Iterations 7
time step continuity errors : sum local = 4.4900467353e-06, global = 2.40384720931e-08, cumulative = 0.00634765543532
ExecutionTime = 8.37 s  ClockTime = 9 s

Time = 111

smoothSolver:  Solving for Ux, Initial residual = 0.000395345135415, Final residual = 3.51164315167e-05, No Iterations 4
smoothSolver:  Solving for Uy, Initial residual = 0.000282697550545, Final residual = 2.44781122306e-05, No Iterations 4
smoothSolver:  Solving for Uz, Initial residual = 0.000110712753325, Final residual = 9.50261169183e-06, No Iterations 4
GAMG:  Solving for p, Initial residual = 0.000180232958841, Final residual = 5.2903894517e-06, No Iterations 7
time step continuity errors : sum local = 4.43157683023e-06, global = 2.2920054885e-08, cumulative = 0.00634767835538
ExecutionTime = 8.44 s  ClockTime = 9 s

Time = 112

smoothSolver:  Solving for Ux, Initial residual = 0.000393078868694, Final residual = 3.49182333373e-05, No Iterations 4
smoothSolver:  Solving for Uy, Initial residual = 0.000279645179887, Final residual = 2.42176553526e-05, No Iterations 4
smoothSolver:  Solving for Uz, Initial residual = 0.000109699810361, Final residual = 9.41784728595e-06, No Iterations 4
GAMG:  Solving for p, Initial residual = 0.000176860288121, Final residual = 5.23875928181e-06, No Iterations 7
time step continuity errors : sum local = 4.37833642939e-06, global = 2.19674386279e-08, cumulative = 0.00634770032281
ExecutionTime = 8.51 s  ClockTime = 9 s

Time = 113

smoothSolver:  Solving for Ux, Initial residual = 0.0003908377733, Final residual = 3.47221937303e-05, No Iterations 4
smoothSolver:  Solving for Uy, Initial residual = 0.000276642780499, Final residual = 2.3961376021e-05, No Iterations 4
smoothSolver:  Solving for Uz, Initial residual = 0.000108703130953, Final residual = 9.33447461435e-06, No Iterations 4
GAMG:  Solving for p, Initial residual = 0.000173583547845, Final residual = 5.1920326094e-06, No Iterations 7
time step continuity errors : sum local = 4.32951519785e-06, global = 2.11956746936e-08, cumulative = 0.00634772151849
ExecutionTime = 8.59 s  ClockTime = 9 s

Time = 114

smoothSolver:  Solving for Ux, Initial residual = 0.000388621537844, Final residual = 3.45282670502e-05, No Iterations 4
smoothSolver:  Solving for Uy, Initial residual = 0.000273688989244, Final residual = 2.37091745072e-05, No Iterations 4
smoothSolver:  Solving for Uz, Initial residual = 0.000107722409736, Final residual = 9.25245958074e-06, No Iterations 4
GAMG:  Solving for p, Initial residual = 0.000170388185755, Final residual = 5.14901164631e-06, No Iterations 7
time step continuity errors : sum local = 4.2840814055e-06, global = 2.06114846007e-08, cumulative = 0.00634774212997
ExecutionTime = 8.66 s  ClockTime = 9 s

Time = 115

smoothSolver:  Solving for Ux, Initial residual = 0.000386429605364, Final residual = 3.43364095161e-05, No Iterations 4
smoothSolver:  Solving for Uy, Initial residual = 0.000270782686081, Final residual = 2.34610020674e-05, No Iterations 4
smoothSolver:  Solving for Uz, Initial residual = 0.000106758086093, Final residual = 9.17177790386e-06, No Iterations 4
GAMG:  Solving for p, Initial residual = 0.000167285217988, Final residual = 5.10875574386e-06, No Iterations 7
time step continuity errors : sum local = 4.24123120209e-06, global = 2.02140519785e-08, cumulative = 0.00634776234403
ExecutionTime = 8.73 s  ClockTime = 9 s

Time = 116

smoothSolver:  Solving for Ux, Initial residual = 0.000384261514668, Final residual = 3.4146580377e-05, No Iterations 4
smoothSolver:  Solving for Uy, Initial residual = 0.000267922079479, Final residual = 2.3216880883e-05, No Iterations 4
smoothSolver:  Solving for Uz, Initial residual = 0.000105809580175, Final residual = 9.09246550023e-06, No Iterations 4
GAMG:  Solving for p, Initial residual = 0.000164299050414, Final residual = 5.07098383809e-06, No Iterations 7
time step continuity errors : sum local = 4.20070788354e-06, global = 1.99979376562e-08, cumulative = 0.00634778234196
ExecutionTime = 8.81 s  ClockTime = 9 s

Time = 117

smoothSolver:  Solving for Ux, Initial residual = 0.000382116941696, Final residual = 3.39587536384e-05, No Iterations 4
smoothSolver:  Solving for Uy, Initial residual = 0.000265106885174, Final residual = 2.29766437508e-05, No Iterations 4
smoothSolver:  Solving for Uz, Initial residual = 0.000104876686925, Final residual = 9.01448753872e-06, No Iterations 4
GAMG:  Solving for p, Initial residual = 0.000161420990258, Final residual = 5.03545552061e-06, No Iterations 7
time step continuity errors : sum local = 4.16229787396e-06, global = 1.99556904572e-08, cumulative = 0.00634780229765
ExecutionTime = 8.88 s  ClockTime = 9 s

Time = 118

smoothSolver:  Solving for Ux, Initial residual = 0.000379995422533, Final residual = 3.37728901785e-05, No Iterations 4
smoothSolver:  Solving for Uy, Initial residual = 0.000262337885534, Final residual = 2.27402315177e-05, No Iterations 4
smoothSolver:  Solving for Uz, Initial residual = 0.000103958987537, Final residual = 8.93774663573e-06, No Iterations 4
GAMG:  Solving for p, Initial residual = 0.000158619789432, Final residual = 5.0022170972e-06, No Iterations 7
time step continuity errors : sum local = 4.1260188427e-06, global = 2.00789393496e-08, cumulative = 0.00634782237659
ExecutionTime = 8.95 s  ClockTime = 9 s

Time = 119

smoothSolver:  Solving for Ux, Initial residual = 0.000377896553026, Final residual = 3.35889546122e-05, No Iterations 4
smoothSolver:  Solving for Uy, Initial residual = 0.000259613295695, Final residual = 2.25073511834e-05, No Iterations 4
smoothSolver:  Solving for Uz, Initial residual = 0.000103056836375, Final residual = 8.86225197878e-06, No Iterations 4
GAMG:  Solving for p, Initial residual = 0.000155896110703, Final residual = 4.97117760235e-06, No Iterations 7
time step continuity errors : sum local = 4.09177997367e-06, global = 2.03581075281e-08, cumulative = 0.0063478427347
ExecutionTime = 9.02 s  ClockTime = 9 s

Time = 120

smoothSolver:  Solving for Ux, Initial residual = 0.000375819987034, Final residual = 3.34069212802e-05, No Iterations 4
smoothSolver:  Solving for Uy, Initial residual = 0.000256939472112, Final residual = 2.22779969208e-05, No Iterations 4
smoothSolver:  Solving for Uz, Initial residual = 0.000102169973178, Final residual = 8.78802728275e-06, No Iterations 4
GAMG:  Solving for p, Initial residual = 0.000153209277572, Final residual = 4.94224058883e-06, No Iterations 7
time step continuity errors : sum local = 4.05948438827e-06, global = 2.07823426146e-08, cumulative = 0.00634786351704
ExecutionTime = 9.09 s  ClockTime = 9 s

Time = 121

smoothSolver:  Solving for Ux, Initial residual = 0.000373765359161, Final residual = 3.32267555504e-05, No Iterations 4
smoothSolver:  Solving for Uy, Initial residual = 0.000254309201663, Final residual = 2.20521129942e-05, No Iterations 4
smoothSolver:  Solving for Uz, Initial residual = 0.000101297367663, Final residual = 8.71501466194e-06, No Iterations 4
GAMG:  Solving for p, Initial residual = 0.000150617807806, Final residual = 4.91539253575e-06, No Iterations 7
time step continuity errors : sum local = 4.02910827346e-06, global = 2.13391504144e-08, cumulative = 0.00634788485619
ExecutionTime = 9.16 s  ClockTime = 9 s

Time = 122

smoothSolver:  Solving for Ux, Initial residual = 0.00037173230949, Final residual = 3.30484281858e-05, No Iterations 4
smoothSolver:  Solving for Uy, Initial residual = 0.000251716727532, Final residual = 2.18295834219e-05, No Iterations 4
smoothSolver:  Solving for Uz, Initial residual = 0.000100439158548, Final residual = 8.64319053601e-06, No Iterations 4
GAMG:  Solving for p, Initial residual = 0.000148079348985, Final residual = 4.89185852554e-06, No Iterations 7
[...]
smoothSolver:  Solving for Uz, Initial residual = 1.79528816012e-05, Final residual = 9.68784603137e-06, No Iterations 1
GAMG:  Solving for p, Initial residual = 8.95914582681e-06, Final residual = 6.17956065537e-07, No Iterations 7
time step continuity errors : sum local = 4.16024038355e-07, global = 1.95605887413e-09, cumulative = 0.006351806525
ExecutionTime = 35.79 s  ClockTime = 36 s

Time = 478

smoothSolver:  Solving for Ux, Initial residual = 0.000107757689279, Final residual = 9.62512169272e-06, No Iterations 4
smoothSolver:  Solving for Uy, Initial residual = 2.58291329307e-05, Final residual = 7.48644459693e-06, No Iterations 2
smoothSolver:  Solving for Uz, Initial residual = 1.79057043829e-05, Final residual = 9.66270562799e-06, No Iterations 1
GAMG:  Solving for p, Initial residual = 8.79755690916e-06, Final residual = 6.1035841872e-07, No Iterations 7
time step continuity errors : sum local = 4.10886918964e-07, global = 2.00651662936e-09, cumulative = 0.00635180853152
ExecutionTime = 35.87 s  ClockTime = 36 s

Time = 479

smoothSolver:  Solving for Ux, Initial residual = 0.00010747006238, Final residual = 9.59935669333e-06, No Iterations 4
smoothSolver:  Solving for Uy, Initial residual = 2.56969304645e-05, Final residual = 7.44973192663e-06, No Iterations 2
smoothSolver:  Solving for Uz, Initial residual = 1.78585995936e-05, Final residual = 9.6376006226e-06, No Iterations 1
GAMG:  Solving for p, Initial residual = 8.66392089094e-06, Final residual = 9.99848112747e-07, No Iterations 5
time step continuity errors : sum local = 6.73051162677e-07, global = 1.12448882249e-08, cumulative = 0.00635181977641
ExecutionTime = 35.94 s  ClockTime = 36 s

Time = 480

smoothSolver:  Solving for Ux, Initial residual = 0.000107183559656, Final residual = 9.57368976658e-06, No Iterations 4
smoothSolver:  Solving for Uy, Initial residual = 2.55592858445e-05, Final residual = 7.41147468283e-06, No Iterations 2
smoothSolver:  Solving for Uz, Initial residual = 1.7811237422e-05, Final residual = 9.61235277851e-06, No Iterations 1
GAMG:  Solving for p, Initial residual = 8.48037452786e-06, Final residual = 6.49376533258e-07, No Iterations 7
time step continuity errors : sum local = 4.37107614413e-07, global = 2.09775529533e-09, cumulative = 0.00635182187416
ExecutionTime = 36.01 s  ClockTime = 36 s

Time = 481

smoothSolver:  Solving for Ux, Initial residual = 0.000106898147614, Final residual = 9.54811793184e-06, No Iterations 4
smoothSolver:  Solving for Uy, Initial residual = 2.54393115555e-05, Final residual = 7.37856997385e-06, No Iterations 2
smoothSolver:  Solving for Uz, Initial residual = 1.77646520891e-05, Final residual = 9.5875174029e-06, No Iterations 1
GAMG:  Solving for p, Initial residual = 8.50553000368e-06, Final residual = 6.06372861101e-07, No Iterations 7
time step continuity errors : sum local = 4.08138592819e-07, global = 1.946996e-09, cumulative = 0.00635182382116
ExecutionTime = 36.08 s  ClockTime = 36 s

Time = 482

smoothSolver:  Solving for Ux, Initial residual = 0.000106613781214, Final residual = 9.52263807957e-06, No Iterations 4
smoothSolver:  Solving for Uy, Initial residual = 2.53084509424e-05, Final residual = 7.34243953243e-06, No Iterations 2
smoothSolver:  Solving for Uz, Initial residual = 1.77179991054e-05, Final residual = 9.56264259839e-06, No Iterations 1
GAMG:  Solving for p, Initial residual = 8.43198298588e-06, Final residual = 9.76263814707e-07, No Iterations 5
time step continuity errors : sum local = 6.57070410055e-07, global = 1.07242142911e-08, cumulative = 0.00635183454537
ExecutionTime = 36.16 s  ClockTime = 36 s

Time = 483

smoothSolver:  Solving for Ux, Initial residual = 0.000106330352117, Final residual = 9.49724209495e-06, No Iterations 4
smoothSolver:  Solving for Uy, Initial residual = 2.51707563662e-05, Final residual = 7.30430719882e-06, No Iterations 2
smoothSolver:  Solving for Uz, Initial residual = 1.76710800204e-05, Final residual = 9.53761920639e-06, No Iterations 1
GAMG:  Solving for p, Initial residual = 8.27354588966e-06, Final residual = 6.40911525197e-07, No Iterations 7
time step continuity errors : sum local = 4.31341214734e-07, global = 2.06896027924e-09, cumulative = 0.00635183661433
ExecutionTime = 36.24 s  ClockTime = 36 s

Time = 484

smoothSolver:  Solving for Ux, Initial residual = 0.000106048022906, Final residual = 9.47194229891e-06, No Iterations 4
smoothSolver:  Solving for Uy, Initial residual = 2.50518556771e-05, Final residual = 7.27182827305e-06, No Iterations 2
smoothSolver:  Solving for Uz, Initial residual = 1.76249484877e-05, Final residual = 9.51301248373e-06, No Iterations 1
GAMG:  Solving for p, Initial residual = 8.31373407675e-06, Final residual = 9.95369356153e-07, No Iterations 5
time step continuity errors : sum local = 6.69859689709e-07, global = 1.15744491128e-08, cumulative = 0.00635184818878
ExecutionTime = 36.31 s  ClockTime = 36 s

Time = 485

smoothSolver:  Solving for Ux, Initial residual = 0.000105766721796, Final residual = 9.44673402962e-06, No Iterations 4
smoothSolver:  Solving for Uy, Initial residual = 2.49178332716e-05, Final residual = 7.23483931805e-06, No Iterations 2
smoothSolver:  Solving for Uz, Initial residual = 1.75784338501e-05, Final residual = 9.48819700259e-06, No Iterations 1
GAMG:  Solving for p, Initial residual = 8.18343480872e-06, Final residual = 6.29933027617e-07, No Iterations 7
time step continuity errors : sum local = 4.23908619178e-07, global = 1.9826240977e-09, cumulative = 0.00635185017141
ExecutionTime = 36.39 s  ClockTime = 37 s

Time = 486

smoothSolver:  Solving for Ux, Initial residual = 0.000105486453797, Final residual = 9.42161660713e-06, No Iterations 4
smoothSolver:  Solving for Uy, Initial residual = 2.47996994448e-05, Final residual = 7.20261456475e-06, No Iterations 2
smoothSolver:  Solving for Uz, Initial residual = 1.75326624772e-05, Final residual = 9.46377500272e-06, No Iterations 1
GAMG:  Solving for p, Initial residual = 8.22829579297e-06, Final residual = 9.84972739483e-07, No Iterations 5
time step continuity errors : sum local = 6.62794739129e-07, global = 1.14654053631e-08, cumulative = 0.00635186163681
ExecutionTime = 36.46 s  ClockTime = 37 s

Time = 487

smoothSolver:  Solving for Ux, Initial residual = 0.000105207178036, Final residual = 9.3965881579e-06, No Iterations 4
smoothSolver:  Solving for Uy, Initial residual = 2.46667532058e-05, Final residual = 7.16595756277e-06, No Iterations 2
smoothSolver:  Solving for Uz, Initial residual = 1.74865112595e-05, Final residual = 9.43914443838e-06, No Iterations 1
GAMG:  Solving for p, Initial residual = 8.09559345948e-06, Final residual = 6.23539553554e-07, No Iterations 7
time step continuity errors : sum local = 4.19563270603e-07, global = 1.95608052527e-09, cumulative = 0.00635186359289
ExecutionTime = 36.53 s  ClockTime = 37 s

Time = 488

smoothSolver:  Solving for Ux, Initial residual = 0.000104928822733, Final residual = 9.37164208764e-06, No Iterations 4
smoothSolver:  Solving for Uy, Initial residual = 2.45502758012e-05, Final residual = 7.13423448334e-06, No Iterations 2
smoothSolver:  Solving for Uz, Initial residual = 1.74411054373e-05, Final residual = 9.41490772055e-06, No Iterations 1
GAMG:  Solving for p, Initial residual = 8.13724517299e-06, Final residual = 9.76817545255e-07, No Iterations 5
time step continuity errors : sum local = 6.57240384588e-07, global = 1.14498061387e-08, cumulative = 0.0063518750427
ExecutionTime = 36.6 s  ClockTime = 37 s

Time = 489

smoothSolver:  Solving for Ux, Initial residual = 0.000104651445543, Final residual = 9.34678348446e-06, No Iterations 4
smoothSolver:  Solving for Uy, Initial residual = 2.44195921342e-05, Final residual = 7.09824853858e-06, No Iterations 2
smoothSolver:  Solving for Uz, Initial residual = 1.73953303455e-05, Final residual = 9.39046935243e-06, No Iterations 1
GAMG:  Solving for p, Initial residual = 8.00772250867e-06, Final residual = 6.17754782745e-07, No Iterations 7
time step continuity errors : sum local = 4.15629000257e-07, global = 1.9354003146e-09, cumulative = 0.0063518769781
ExecutionTime = 36.68 s  ClockTime = 37 s

Time = 490

smoothSolver:  Solving for Ux, Initial residual = 0.0001043750891, Final residual = 9.32201582559e-06, No Iterations 4
smoothSolver:  Solving for Uy, Initial residual = 2.43054154956e-05, Final residual = 7.06719136416e-06, No Iterations 2
smoothSolver:  Solving for Uz, Initial residual = 1.7350296741e-05, Final residual = 9.36642345269e-06, No Iterations 1
GAMG:  Solving for p, Initial residual = 8.04773136337e-06, Final residual = 9.63441149617e-07, No Iterations 5
time step continuity errors : sum local = 6.48175476387e-07, global = 1.15121754424e-08, cumulative = 0.00635188849027
ExecutionTime = 36.75 s  ClockTime = 37 s

Time = 491

smoothSolver:  Solving for Ux, Initial residual = 0.000104099679275, Final residual = 9.29733323146e-06, No Iterations 4
smoothSolver:  Solving for Uy, Initial residual = 2.41771634938e-05, Final residual = 7.03190588127e-06, No Iterations 2
smoothSolver:  Solving for Uz, Initial residual = 1.73049034246e-05, Final residual = 9.34218045583e-06, No Iterations 1
GAMG:  Solving for p, Initial residual = 7.91958753354e-06, Final residual = 6.13598728075e-07, No Iterations 7
time step continuity errors : sum local = 4.12791818453e-07, global = 1.92189586124e-09, cumulative = 0.00635189041217
ExecutionTime = 36.83 s  ClockTime = 37 s

Time = 492

smoothSolver:  Solving for Ux, Initial residual = 0.000103825281518, Final residual = 9.27274025378e-06, No Iterations 4
smoothSolver:  Solving for Uy, Initial residual = 2.40654095025e-05, Final residual = 7.00153993758e-06, No Iterations 2
smoothSolver:  Solving for Uz, Initial residual = 1.72602513021e-05, Final residual = 9.31832985943e-06, No Iterations 1
GAMG:  Solving for p, Initial residual = 7.95595585033e-06, Final residual = 9.63496523273e-07, No Iterations 5
time step continuity errors : sum local = 6.4814887877e-07, global = 1.16801271929e-08, cumulative = 0.0063519020923
ExecutionTime = 36.9 s  ClockTime = 37 s

Time = 493

smoothSolver:  Solving for Ux, Initial residual = 0.000103551721521, Final residual = 9.24822424576e-06, No Iterations 4
smoothSolver:  Solving for Uy, Initial residual = 2.39395958457e-05, Final residual = 6.96694383561e-06, No Iterations 2
smoothSolver:  Solving for Uz, Initial residual = 1.72152484124e-05, Final residual = 9.29428701444e-06, No Iterations 1
GAMG:  Solving for p, Initial residual = 7.82782593164e-06, Final residual = 6.0639817665e-07, No Iterations 7
time step continuity errors : sum local = 4.07907801703e-07, global = 1.900880998e-09, cumulative = 0.00635190399318
ExecutionTime = 36.97 s  ClockTime = 37 s

Time = 494

smoothSolver:  Solving for Ux, Initial residual = 0.00010327910793, Final residual = 9.22379327828e-06, No Iterations 4
smoothSolver:  Solving for Uy, Initial residual = 2.38302195734e-05, Final residual = 6.93724216464e-06, No Iterations 2
smoothSolver:  Solving for Uz, Initial residual = 1.71709845196e-05, Final residual = 9.27063525227e-06, No Iterations 1
GAMG:  Solving for p, Initial residual = 7.86189152566e-06, Final residual = 9.6359650396e-07, No Iterations 5
time step continuity errors : sum local = 6.48153132518e-07, global = 1.17920846685e-08, cumulative = 0.00635191578526
ExecutionTime = 37.04 s  ClockTime = 37 s

Time = 495

smoothSolver:  Solving for Ux, Initial residual = 0.000103007425648, Final residual = 9.19944628745e-06, No Iterations 4
smoothSolver:  Solving for Uy, Initial residual = 2.3706951206e-05, Final residual = 6.90335826113e-06, No Iterations 2
smoothSolver:  Solving for Uz, Initial residual = 1.71263777475e-05, Final residual = 9.2467957245e-06, No Iterations 1
GAMG:  Solving for p, Initial residual = 7.73224999074e-06, Final residual = 6.29691764213e-07, No Iterations 7
time step continuity errors : sum local = 4.2353585999e-07, global = 1.9140487964e-09, cumulative = 0.00635191769931
ExecutionTime = 37.12 s  ClockTime = 37 s

Time = 496

smoothSolver:  Solving for Ux, Initial residual = 0.000102736707222, Final residual = 9.1751855518e-06, No Iterations 4
smoothSolver:  Solving for Uy, Initial residual = 2.35994586538e-05, Final residual = 6.87416989816e-06, No Iterations 2
smoothSolver:  Solving for Uz, Initial residual = 1.70825042094e-05, Final residual = 9.22334380658e-06, No Iterations 1
GAMG:  Solving for p, Initial residual = 7.76476315243e-06, Final residual = 9.66827434643e-07, No Iterations 5
time step continuity errors : sum local = 6.5026417863e-07, global = 1.24469844933e-08, cumulative = 0.00635193014629
ExecutionTime = 37.19 s  ClockTime = 37 s

Time = 497

smoothSolver:  Solving for Ux, Initial residual = 0.000102466913065, Final residual = 9.15100877403e-06, No Iterations 4
smoothSolver:  Solving for Uy, Initial residual = 2.34792773624e-05, Final residual = 6.8411512617e-06, No Iterations 2
smoothSolver:  Solving for Uz, Initial residual = 1.70382963375e-05, Final residual = 9.19970897734e-06, No Iterations 1
GAMG:  Solving for p, Initial residual = 7.63580725874e-06, Final residual = 6.23030495409e-07, No Iterations 7
time step continuity errors : sum local = 4.19015540074e-07, global = 1.88257760482e-09, cumulative = 0.00635193202887
ExecutionTime = 37.26 s  ClockTime = 37 s

Time = 498

smoothSolver:  Solving for Ux, Initial residual = 0.000102197933526, Final residual = 9.12690558754e-06, No Iterations 4
smoothSolver:  Solving for Uy, Initial residual = 2.33739933923e-05, Final residual = 6.81255777515e-06, No Iterations 2
smoothSolver:  Solving for Uz, Initial residual = 1.69948050132e-05, Final residual = 9.17645415e-06, No Iterations 1
GAMG:  Solving for p, Initial residual = 7.6671233613e-06, Final residual = 9.63337203849e-07, No Iterations 5
time step continuity errors : sum local = 6.47855385723e-07, global = 1.25341440607e-08, cumulative = 0.00635194456302
ExecutionTime = 37.33 s  ClockTime = 37 s

Time = 499

smoothSolver:  Solving for Ux, Initial residual = 0.000101929889059, Final residual = 9.10288766753e-06, No Iterations 4
smoothSolver:  Solving for Uy, Initial residual = 2.32561232305e-05, Final residual = 6.78016809776e-06, No Iterations 2
smoothSolver:  Solving for Uz, Initial residual = 1.69509867437e-05, Final residual = 9.15302012626e-06, No Iterations 1
GAMG:  Solving for p, Initial residual = 7.5393058105e-06, Final residual = 6.14544652765e-07, No Iterations 7
time step continuity errors : sum local = 4.13269530736e-07, global = 1.87404873894e-09, cumulative = 0.00635194643707
ExecutionTime = 37.41 s  ClockTime = 38 s

Time = 500

smoothSolver:  Solving for Ux, Initial residual = 0.000101662753831, Final residual = 9.07895144691e-06, No Iterations 4
smoothSolver:  Solving for Uy, Initial residual = 2.31530686068e-05, Final residual = 6.75217408875e-06, No Iterations 2
smoothSolver:  Solving for Uz, Initial residual = 1.69078793328e-05, Final residual = 9.12996273373e-06, No Iterations 1
GAMG:  Solving for p, Initial residual = 7.57072614453e-06, Final residual = 9.64756732504e-07, No Iterations 5
time step continuity errors : sum local = 6.48749370609e-07, global = 1.22572578551e-08, cumulative = 0.00635195869432
ExecutionTime = 37.48 s  ClockTime = 38 s

    writing object shearStress
Time = 501

smoothSolver:  Solving for Ux, Initial residual = 0.000101396520983, Final residual = 9.05509719146e-06, No Iterations 4
smoothSolver:  Solving for Uy, Initial residual = 2.30372090763e-05, Final residual = 6.72032017239e-06, No Iterations 2
smoothSolver:  Solving for Uz, Initial residual = 1.68644563595e-05, Final residual = 9.10673236398e-06, No Iterations 1
GAMG:  Solving for p, Initial residual = 7.44169065424e-06, Final residual = 6.0642092393e-07, No Iterations 7
time step continuity errors : sum local = 4.07768712218e-07, global = 1.86313690052e-09, cumulative = 0.00635196055746
ExecutionTime = 37.59 s  ClockTime = 38 s

Time = 502

smoothSolver:  Solving for Ux, Initial residual = 0.000101131184254, Final residual = 9.0313239672e-06, No Iterations 4
smoothSolver:  Solving for Uy, Initial residual = 2.29372072118e-05, Final residual = 6.69317354929e-06, No Iterations 2
smoothSolver:  Solving for Uz, Initial residual = 1.6821732937e-05, Final residual = 9.08387257941e-06, No Iterations 1
GAMG:  Solving for p, Initial residual = 7.47248060174e-06, Final residual = 9.60026348758e-07, No Iterations 5
time step continuity errors : sum local = 6.45508902404e-07, global = 1.30317692291e-08, cumulative = 0.00635197358923
ExecutionTime = 37.66 s  ClockTime = 38 s

Time = 503

smoothSolver:  Solving for Ux, Initial residual = 0.000100866636627, Final residual = 9.00762316984e-06, No Iterations 4
smoothSolver:  Solving for Uy, Initial residual = 2.28239917114e-05, Final residual = 6.6620418742e-06, No Iterations 2
smoothSolver:  Solving for Uz, Initial residual = 1.67786833596e-05, Final residual = 9.06083438234e-06, No Iterations 1
GAMG:  Solving for p, Initial residual = 7.34595960766e-06, Final residual = 6.01390933919e-07, No Iterations 7
time step continuity errors : sum local = 4.04349254378e-07, global = 1.84083571579e-09, cumulative = 0.00635197543006
ExecutionTime = 37.74 s  ClockTime = 38 s

Time = 504

smoothSolver:  Solving for Ux, Initial residual = 0.00010060299134, Final residual = 8.98400425696e-06, No Iterations 4
smoothSolver:  Solving for Uy, Initial residual = 2.27252417531e-05, Final residual = 6.63519990468e-06, No Iterations 2
smoothSolver:  Solving for Uz, Initial residual = 1.67363308364e-05, Final residual = 9.03816559171e-06, No Iterations 1
GAMG:  Solving for p, Initial residual = 7.37720043818e-06, Final residual = 9.59892569849e-07, No Iterations 5
time step continuity errors : sum local = 6.45360131498e-07, global = 1.26934608532e-08, cumulative = 0.00635198812353
ExecutionTime = 37.81 s  ClockTime = 38 s

Time = 505

smoothSolver:  Solving for Ux, Initial residual = 0.000100340229693, Final residual = 8.96046535173e-06, No Iterations 4
smoothSolver:  Solving for Uy, Initial residual = 2.26141285618e-05, Final residual = 6.60462355053e-06, No Iterations 2
smoothSolver:  Solving for Uz, Initial residual = 1.66936715062e-05, Final residual = 9.01532918511e-06, No Iterations 1
GAMG:  Solving for p, Initial residual = 7.2522147368e-06, Final residual = 5.92990031046e-07, No Iterations 7
time step continuity errors : sum local = 3.9866491403e-07, global = 1.85349900686e-09, cumulative = 0.00635198997702
ExecutionTime = 37.89 s  ClockTime = 38 s

Time = 506

smoothSolver:  Solving for Ux, Initial residual = 0.000100078344703, Final residual = 8.9370059605e-06, No Iterations 4
smoothSolver:  Solving for Uy, Initial residual = 2.25185116611e-05, Final residual = 6.57863947719e-06, No Iterations 2
smoothSolver:  Solving for Uz, Initial residual = 1.66516981503e-05, Final residual = 8.99285655118e-06, No Iterations 1
GAMG:  Solving for p, Initial residual = 7.28332734251e-06, Final residual = 9.59190059806e-07, No Iterations 5
time step continuity errors : sum local = 6.44829935368e-07, global = 1.31972935382e-08, cumulative = 0.00635200317432
ExecutionTime = 37.96 s  ClockTime = 38 s

Time = 507

smoothSolver:  Solving for Ux, Initial residual = 9.98172686708e-05, Final residual = 8.91362110982e-06, No Iterations 4
smoothSolver:  Solving for Uy, Initial residual = 2.2409671401e-05, Final residual = 6.54866531247e-06, No Iterations 2
smoothSolver:  Solving for Uz, Initial residual = 1.66094116418e-05, Final residual = 8.97021252058e-06, No Iterations 1
GAMG:  Solving for p, Initial residual = 7.15860788494e-06, Final residual = 5.87047280073e-07, No Iterations 7
time step continuity errors : sum local = 3.94634404354e-07, global = 1.83002204752e-09, cumulative = 0.00635200500434
ExecutionTime = 38.03 s  ClockTime = 38 s


SIMPLE solution converged in 507 iterations

    writing object shearStress
End

Finalising parallel run
