/*---------------------------------------------------------------------------*\
  =========                 |
  \\      /  F ield         | OpenFOAM: The Open Source CFD Toolbox
   \\    /   O peration     | Website:  https://openfoam.org
    \\  /    A nd           | Version:  9
     \\/     M anipulation  |
\*---------------------------------------------------------------------------*/
Build  : 9-b456138dc4bc
Exec   : simpleFoam -parallel
Date   : Jul 04 2022
Time   : 19:42:36
Host   : "KORIN-LAB"
PID    : 3047
I/O    : uncollated
Case   : /home/colin/OpenFOAM/colin-9/run/wsl/wedge_needle/concentration/3/90_needle_layer
nProcs : 6
Slaves : 
5
(
"KORIN-LAB.3048"
"KORIN-LAB.3049"
"KORIN-LAB.3050"
"KORIN-LAB.3051"
"KORIN-LAB.3052"
)

Pstream initialised with:
    floatTransfer      : 0
    nProcsSimpleSum    : 0
    commsType          : nonBlocking
    polling iterations : 0
sigFpe : Enabling floating point exception trapping (FOAM_SIGFPE).
fileModificationChecking : Monitoring run-time modified files using timeStampMaster (fileModificationSkew 10)
allowSystemOperations : Allowing user-supplied system call operations

// * * * * * * * * * * * * * * * * * * * * * * * * * * * * * * * * * * * * * //
Create time

Create mesh for time = 0


SIMPLE: Convergence criteria found
        p: tolerance 0.001
        U: tolerance 0.0001
        "(k|epsilon|omega|f|v2)": tolerance 0.0001

Reading field p

Reading field U

Reading/calculating face flux field phi

Selecting incompressible transport model powerLaw
Selecting turbulence model type laminar
Selecting laminar stress model Stokes
No MRF models present

No fvModels present
No fvConstraints present

Starting time loop

wallShearStress wallShearStress:
    processing all wall patches

Time = 1

smoothSolver:  Solving for Ux, Initial residual = 0.990217423909, Final residual = 0.0800149971534, No Iterations 2
smoothSolver:  Solving for Uy, Initial residual = 1, Final residual = 0.0572562251193, No Iterations 2
smoothSolver:  Solving for Uz, Initial residual = 1, Final residual = 0.0816529803376, No Iterations 2
GAMG:  Solving for p, Initial residual = 0.999999999986, Final residual = 0.042212209215, No Iterations 32
time step continuity errors : sum local = 0.0219270102941, global = -0.000279621393094, cumulative = -0.000279621393094
ExecutionTime = 0.17 s  ClockTime = 0 s

Time = 2

smoothSolver:  Solving for Ux, Initial residual = 0.847093797967, Final residual = 0.0766799607348, No Iterations 3
smoothSolver:  Solving for Uy, Initial residual = 0.99378560804, Final residual = 0.0866527518734, No Iterations 4
smoothSolver:  Solving for Uz, Initial residual = 0.996880380624, Final residual = 0.084663983482, No Iterations 4
GAMG:  Solving for p, Initial residual = 0.00624994364955, Final residual = 0.000154265188676, No Iterations 13
time step continuity errors : sum local = 217.966206646, global = 1.67525867445, cumulative = 1.67497905305
ExecutionTime = 0.24 s  ClockTime = 0 s

Time = 3

smoothSolver:  Solving for Ux, Initial residual = 0.721207914258, Final residual = 0.0472951262805, No Iterations 3
smoothSolver:  Solving for Uy, Initial residual = 0.0893870039731, Final residual = 0.00755435103495, No Iterations 4
smoothSolver:  Solving for Uz, Initial residual = 0.0794872211839, Final residual = 0.00673110821378, No Iterations 4
GAMG:  Solving for p, Initial residual = 0.0190373121854, Final residual = 0.000809822688303, No Iterations 15
time step continuity errors : sum local = 209.853579063, global = 1.76358265515, cumulative = 3.4385617082
ExecutionTime = 0.31 s  ClockTime = 0 s

Time = 4

smoothSolver:  Solving for Ux, Initial residual = 0.0413685573645, Final residual = 0.00289730900313, No Iterations 3
smoothSolver:  Solving for Uy, Initial residual = 0.0777356038975, Final residual = 0.00663233269323, No Iterations 4
smoothSolver:  Solving for Uz, Initial residual = 0.0190586824346, Final residual = 0.00132889813447, No Iterations 4
GAMG:  Solving for p, Initial residual = 0.359633582124, Final residual = 0.00940806923637, No Iterations 11
time step continuity errors : sum local = 218.185468993, global = 0.198693753942, cumulative = 3.63725546214
ExecutionTime = 0.38 s  ClockTime = 0 s

Time = 5

smoothSolver:  Solving for Ux, Initial residual = 0.0120277467024, Final residual = 0.000947393308065, No Iterations 3
smoothSolver:  Solving for Uy, Initial residual = 0.0218222015678, Final residual = 0.00166412845539, No Iterations 4
smoothSolver:  Solving for Uz, Initial residual = 0.0747932799994, Final residual = 0.00620635993322, No Iterations 4
GAMG:  Solving for p, Initial residual = 0.0506034452097, Final residual = 0.00151007652133, No Iterations 7
time step continuity errors : sum local = 129.986459987, global = -0.612413824125, cumulative = 3.02484163802
ExecutionTime = 0.45 s  ClockTime = 0 s

Time = 6

smoothSolver:  Solving for Ux, Initial residual = 0.00775351066662, Final residual = 0.000773182402173, No Iterations 2
smoothSolver:  Solving for Uy, Initial residual = 0.201235793696, Final residual = 0.0170326300385, No Iterations 4
smoothSolver:  Solving for Uz, Initial residual = 0.202761681518, Final residual = 0.0170923528919, No Iterations 4
GAMG:  Solving for p, Initial residual = 0.0364900645756, Final residual = 0.00175154401571, No Iterations 14
time step continuity errors : sum local = 99.3095020482, global = 6.14953010722, cumulative = 9.17437174524
ExecutionTime = 0.52 s  ClockTime = 0 s

Time = 7

smoothSolver:  Solving for Ux, Initial residual = 0.00761208461634, Final residual = 0.000715611558781, No Iterations 2
smoothSolver:  Solving for Uy, Initial residual = 0.311486588897, Final residual = 0.0265560010972, No Iterations 4
smoothSolver:  Solving for Uz, Initial residual = 0.169897093746, Final residual = 0.0142230323119, No Iterations 4
GAMG:  Solving for p, Initial residual = 0.0574928319533, Final residual = 0.00265095040737, No Iterations 9
time step continuity errors : sum local = 166.711900942, global = -0.518049308624, cumulative = 8.65632243661
ExecutionTime = 0.59 s  ClockTime = 0 s

Time = 8

smoothSolver:  Solving for Ux, Initial residual = 0.00691564359995, Final residual = 0.00033108925419, No Iterations 3
smoothSolver:  Solving for Uy, Initial residual = 0.0799168871044, Final residual = 0.0066908133617, No Iterations 4
smoothSolver:  Solving for Uz, Initial residual = 0.0534194866344, Final residual = 0.00433814131734, No Iterations 4
GAMG:  Solving for p, Initial residual = 0.198348484331, Final residual = 0.00713586621857, No Iterations 8
time step continuity errors : sum local = 108.032383832, global = 7.40962408984, cumulative = 16.0659465265
ExecutionTime = 0.66 s  ClockTime = 0 s

Time = 9

smoothSolver:  Solving for Ux, Initial residual = 0.0055044691581, Final residual = 0.000316220477346, No Iterations 3
smoothSolver:  Solving for Uy, Initial residual = 0.0358485621365, Final residual = 0.0028779604831, No Iterations 4
smoothSolver:  Solving for Uz, Initial residual = 0.0417326133013, Final residual = 0.00338572472207, No Iterations 4
GAMG:  Solving for p, Initial residual = 0.08179378319, Final residual = 0.00351257632469, No Iterations 6
time step continuity errors : sum local = 73.4859234869, global = 0.179103947401, cumulative = 16.2450504739
ExecutionTime = 0.73 s  ClockTime = 0 s

Time = 10

smoothSolver:  Solving for Ux, Initial residual = 0.00393127432663, Final residual = 0.000289531610028, No Iterations 3
smoothSolver:  Solving for Uy, Initial residual = 0.130855007362, Final residual = 0.0111211998935, No Iterations 4
smoothSolver:  Solving for Uz, Initial residual = 0.109847416267, Final residual = 0.00933046990504, No Iterations 4
GAMG:  Solving for p, Initial residual = 0.0412974449996, Final residual = 0.00205061755616, No Iterations 7
time step continuity errors : sum local = 45.6056067511, global = 0.460979247627, cumulative = 16.7060297215
ExecutionTime = 0.78 s  ClockTime = 0 s

Time = 11

smoothSolver:  Solving for Ux, Initial residual = 0.0027998533568, Final residual = 0.000247223131279, No Iterations 3
smoothSolver:  Solving for Uy, Initial residual = 0.502446135241, Final residual = 0.0429602835475, No Iterations 4
smoothSolver:  Solving for Uz, Initial residual = 0.187986496561, Final residual = 0.0160982591321, No Iterations 4
GAMG:  Solving for p, Initial residual = 0.0497878713625, Final residual = 0.00151860058631, No Iterations 11
time step continuity errors : sum local = 29.369947958, global = 0.413889416728, cumulative = 17.1199191382
ExecutionTime = 0.86 s  ClockTime = 0 s

Time = 12

smoothSolver:  Solving for Ux, Initial residual = 0.00239252185122, Final residual = 0.000208824571226, No Iterations 3
smoothSolver:  Solving for Uy, Initial residual = 0.115689347815, Final residual = 0.00979876964822, No Iterations 4
smoothSolver:  Solving for Uz, Initial residual = 0.0842937419734, Final residual = 0.00722896329886, No Iterations 4
GAMG:  Solving for p, Initial residual = 0.0984222847446, Final residual = 0.00319746408811, No Iterations 9
time step continuity errors : sum local = 31.0804969811, global = -0.099527290279, cumulative = 17.0203918479
ExecutionTime = 0.93 s  ClockTime = 0 s

Time = 13

smoothSolver:  Solving for Ux, Initial residual = 0.00200017092446, Final residual = 0.000186708739228, No Iterations 3
smoothSolver:  Solving for Uy, Initial residual = 0.0455250571002, Final residual = 0.0037528784828, No Iterations 4
smoothSolver:  Solving for Uz, Initial residual = 0.0454051582617, Final residual = 0.00383533128382, No Iterations 4
GAMG:  Solving for p, Initial residual = 0.271872862053, Final residual = 0.00653970861218, No Iterations 9
time step continuity errors : sum local = 17.7125363065, global = 0.103631416993, cumulative = 17.1240232649
ExecutionTime = 1 s  ClockTime = 1 s

Time = 14

smoothSolver:  Solving for Ux, Initial residual = 0.00193792324673, Final residual = 0.000184997854587, No Iterations 3
smoothSolver:  Solving for Uy, Initial residual = 0.0593067443084, Final residual = 0.00493177760701, No Iterations 4
smoothSolver:  Solving for Uz, Initial residual = 0.0451464843713, Final residual = 0.00377770738095, No Iterations 4
GAMG:  Solving for p, Initial residual = 0.100617277354, Final residual = 0.00334070334315, No Iterations 7
time step continuity errors : sum local = 17.7938272889, global = 0.0150895447392, cumulative = 17.1391128097
ExecutionTime = 1.07 s  ClockTime = 1 s

Time = 15

smoothSolver:  Solving for Ux, Initial residual = 0.00205304381381, Final residual = 0.00019539252614, No Iterations 3
smoothSolver:  Solving for Uy, Initial residual = 0.134794478864, Final residual = 0.0113331327062, No Iterations 4
smoothSolver:  Solving for Uz, Initial residual = 0.0507738270985, Final residual = 0.0042477387528, No Iterations 4
GAMG:  Solving for p, Initial residual = 0.0896234003693, Final residual = 0.00250221856527, No Iterations 7
time step continuity errors : sum local = 13.528262674, global = -0.0434248969466, cumulative = 17.0956879127
ExecutionTime = 1.14 s  ClockTime = 1 s

Time = 16

smoothSolver:  Solving for Ux, Initial residual = 0.0021174883942, Final residual = 0.000203049346437, No Iterations 3
smoothSolver:  Solving for Uy, Initial residual = 0.205267828835, Final residual = 0.016973484959, No Iterations 4
smoothSolver:  Solving for Uz, Initial residual = 0.0389234299051, Final residual = 0.00322328505602, No Iterations 4
GAMG:  Solving for p, Initial residual = 0.100690980885, Final residual = 0.00440290084862, No Iterations 6
time step continuity errors : sum local = 21.0506605205, global = 0.0271307626978, cumulative = 17.1228186754
ExecutionTime = 1.21 s  ClockTime = 1 s

Time = 17

smoothSolver:  Solving for Ux, Initial residual = 0.00211234690987, Final residual = 0.000207616731551, No Iterations 3
smoothSolver:  Solving for Uy, Initial residual = 0.0882371666942, Final residual = 0.00703669883071, No Iterations 4
smoothSolver:  Solving for Uz, Initial residual = 0.0261326443901, Final residual = 0.00211615556692, No Iterations 4
GAMG:  Solving for p, Initial residual = 0.177495200611, Final residual = 0.00806255759239, No Iterations 6
time step continuity errors : sum local = 20.0519095035, global = -0.188815591565, cumulative = 16.9340030839
ExecutionTime = 1.27 s  ClockTime = 1 s

Time = 18

smoothSolver:  Solving for Ux, Initial residual = 0.00197838094543, Final residual = 0.000103234722853, No Iterations 4
smoothSolver:  Solving for Uy, Initial residual = 0.0659574190656, Final residual = 0.00523382360717, No Iterations 4
smoothSolver:  Solving for Uz, Initial residual = 0.0228931472056, Final residual = 0.00184896269205, No Iterations 4
GAMG:  Solving for p, Initial residual = 0.218323756966, Final residual = 0.00756942058875, No Iterations 6
time step continuity errors : sum local = 12.9570852975, global = -0.127720591869, cumulative = 16.806282492
ExecutionTime = 1.33 s  ClockTime = 1 s

Time = 19

smoothSolver:  Solving for Ux, Initial residual = 0.00180811382164, Final residual = 9.98721429363e-05, No Iterations 4
smoothSolver:  Solving for Uy, Initial residual = 0.119050828767, Final residual = 0.00995168426974, No Iterations 4
smoothSolver:  Solving for Uz, Initial residual = 0.0271264357234, Final residual = 0.00227390411001, No Iterations 4
GAMG:  Solving for p, Initial residual = 0.12040079578, Final residual = 0.0037152055189, No Iterations 6
time step continuity errors : sum local = 9.37433887329, global = -0.0183308546917, cumulative = 16.7879516373
ExecutionTime = 1.42 s  ClockTime = 1 s

Time = 20

smoothSolver:  Solving for Ux, Initial residual = 0.00164728634742, Final residual = 9.56625813364e-05, No Iterations 4
smoothSolver:  Solving for Uy, Initial residual = 0.0943407188997, Final residual = 0.00799697712798, No Iterations 4
smoothSolver:  Solving for Uz, Initial residual = 0.0293580091896, Final residual = 0.0025037621265, No Iterations 4
GAMG:  Solving for p, Initial residual = 0.0945492091922, Final residual = 0.00198208647977, No Iterations 7
time step continuity errors : sum local = 5.47110692136, global = -0.00312316669313, cumulative = 16.7848284706
ExecutionTime = 1.49 s  ClockTime = 1 s

Time = 21

smoothSolver:  Solving for Ux, Initial residual = 0.00151436022958, Final residual = 9.08696709083e-05, No Iterations 4
smoothSolver:  Solving for Uy, Initial residual = 0.0603719086991, Final residual = 0.00509211103567, No Iterations 4
smoothSolver:  Solving for Uz, Initial residual = 0.0298113954464, Final residual = 0.00255167763134, No Iterations 4
GAMG:  Solving for p, Initial residual = 0.0819837604436, Final residual = 0.00323029860896, No Iterations 6
time step continuity errors : sum local = 8.74576296174, global = 0.0157801523128, cumulative = 16.8006086229
ExecutionTime = 1.55 s  ClockTime = 1 s

Time = 22

smoothSolver:  Solving for Ux, Initial residual = 0.00137569225107, Final residual = 8.59420425577e-05, No Iterations 4
smoothSolver:  Solving for Uy, Initial residual = 0.044822041768, Final residual = 0.00379126948131, No Iterations 4
smoothSolver:  Solving for Uz, Initial residual = 0.026043679758, Final residual = 0.00221742735796, No Iterations 4
GAMG:  Solving for p, Initial residual = 0.0997540987791, Final residual = 0.00367625204663, No Iterations 6
time step continuity errors : sum local = 7.16996592339, global = 0.0187129631369, cumulative = 16.819321586
ExecutionTime = 1.62 s  ClockTime = 1 s

Time = 23

smoothSolver:  Solving for Ux, Initial residual = 0.0012983792357, Final residual = 8.31176297732e-05, No Iterations 4
smoothSolver:  Solving for Uy, Initial residual = 0.03319468569, Final residual = 0.00275820701694, No Iterations 4
smoothSolver:  Solving for Uz, Initial residual = 0.0223754787953, Final residual = 0.00189972849781, No Iterations 4
GAMG:  Solving for p, Initial residual = 0.133473606406, Final residual = 0.00663406733144, No Iterations 4
time step continuity errors : sum local = 8.60954887056, global = 0.0317969861229, cumulative = 16.8511185722
ExecutionTime = 1.69 s  ClockTime = 1 s

Time = 24

smoothSolver:  Solving for Ux, Initial residual = 0.00124827311948, Final residual = 8.12279330195e-05, No Iterations 4
smoothSolver:  Solving for Uy, Initial residual = 0.0344892574231, Final residual = 0.00282699113108, No Iterations 4
smoothSolver:  Solving for Uz, Initial residual = 0.0198561825595, Final residual = 0.00168583290694, No Iterations 4
GAMG:  Solving for p, Initial residual = 0.151214913217, Final residual = 0.00525617690201, No Iterations 5
time step continuity errors : sum local = 5.59550809369, global = 0.0381038429605, cumulative = 16.8892224151
ExecutionTime = 1.76 s  ClockTime = 1 s

Time = 25

smoothSolver:  Solving for Ux, Initial residual = 0.00122519860173, Final residual = 8.08633865435e-05, No Iterations 4
smoothSolver:  Solving for Uy, Initial residual = 0.0314268082291, Final residual = 0.00255959953019, No Iterations 4
smoothSolver:  Solving for Uz, Initial residual = 0.0171931268929, Final residual = 0.00145002405101, No Iterations 4
GAMG:  Solving for p, Initial residual = 0.175612755745, Final residual = 0.0064031177159, No Iterations 5
time step continuity errors : sum local = 5.78613716909, global = 0.0440317967761, cumulative = 16.9332542119
ExecutionTime = 1.82 s  ClockTime = 1 s

Time = 26

smoothSolver:  Solving for Ux, Initial residual = 0.00120768440644, Final residual = 8.07215609607e-05, No Iterations 4
smoothSolver:  Solving for Uy, Initial residual = 0.024491978112, Final residual = 0.00193917676375, No Iterations 4
smoothSolver:  Solving for Uz, Initial residual = 0.0146516057538, Final residual = 0.001217580809, No Iterations 4
GAMG:  Solving for p, Initial residual = 0.193387080935, Final residual = 0.00322111183561, No Iterations 6
time step continuity errors : sum local = 2.59117387969, global = 0.00375347391256, cumulative = 16.9370076858
ExecutionTime = 1.89 s  ClockTime = 1 s

Time = 27

smoothSolver:  Solving for Ux, Initial residual = 0.0011893161122, Final residual = 8.03185246192e-05, No Iterations 4
smoothSolver:  Solving for Uy, Initial residual = 0.0201414147247, Final residual = 0.00156930915748, No Iterations 4
smoothSolver:  Solving for Uz, Initial residual = 0.012815343583, Final residual = 0.00104846277985, No Iterations 4
GAMG:  Solving for p, Initial residual = 0.192884462109, Final residual = 0.00529089364699, No Iterations 5
time step continuity errors : sum local = 4.01169178618, global = -0.00570768772608, cumulative = 16.9312999981
ExecutionTime = 1.96 s  ClockTime = 2 s

Time = 28

smoothSolver:  Solving for Ux, Initial residual = 0.00116511948406, Final residual = 7.96142827498e-05, No Iterations 4
smoothSolver:  Solving for Uy, Initial residual = 0.0179992173209, Final residual = 0.00139780341174, No Iterations 4
smoothSolver:  Solving for Uz, Initial residual = 0.012089037015, Final residual = 0.000984033676716, No Iterations 4
GAMG:  Solving for p, Initial residual = 0.164419970001, Final residual = 0.00521460619061, No Iterations 5
time step continuity errors : sum local = 4.19511364793, global = -0.0173387816554, cumulative = 16.9139612164
ExecutionTime = 2.03 s  ClockTime = 2 s

Time = 29

smoothSolver:  Solving for Ux, Initial residual = 0.00113400456824, Final residual = 7.83830815272e-05, No Iterations 4
smoothSolver:  Solving for Uy, Initial residual = 0.0174749370485, Final residual = 0.0013947796069, No Iterations 4
smoothSolver:  Solving for Uz, Initial residual = 0.0128389929989, Final residual = 0.0010767690078, No Iterations 4
GAMG:  Solving for p, Initial residual = 0.129301143318, Final residual = 0.00332667539849, No Iterations 5
time step continuity errors : sum local = 2.96012935303, global = -0.0122569756034, cumulative = 16.9017042408
ExecutionTime = 2.09 s  ClockTime = 2 s

Time = 30

smoothSolver:  Solving for Ux, Initial residual = 0.00110085077388, Final residual = 7.68438870107e-05, No Iterations 4
smoothSolver:  Solving for Uy, Initial residual = 0.018695541547, Final residual = 0.00152965721203, No Iterations 4
smoothSolver:  Solving for Uz, Initial residual = 0.0139902952693, Final residual = 0.0011886595833, No Iterations 4
GAMG:  Solving for p, Initial residual = 0.102780342973, Final residual = 0.00491625417727, No Iterations 5
time step continuity errors : sum local = 4.70412582664, global = 0.00784788982039, cumulative = 16.9095521307
ExecutionTime = 2.16 s  ClockTime = 2 s

Time = 31

smoothSolver:  Solving for Ux, Initial residual = 0.00106535497588, Final residual = 7.51332504227e-05, No Iterations 4
smoothSolver:  Solving for Uy, Initial residual = 0.0187405716764, Final residual = 0.00154213625034, No Iterations 4
smoothSolver:  Solving for Uz, Initial residual = 0.0145695115603, Final residual = 0.00124820832057, No Iterations 4
GAMG:  Solving for p, Initial residual = 0.084644924501, Final residual = 0.00164856429498, No Iterations 5
time step continuity errors : sum local = 1.6422593211, global = -0.004287013996, cumulative = 16.9052651167
ExecutionTime = 2.21 s  ClockTime = 2 s

Time = 32

smoothSolver:  Solving for Ux, Initial residual = 0.00102921417393, Final residual = 7.33060992887e-05, No Iterations 4
smoothSolver:  Solving for Uy, Initial residual = 0.0177219027916, Final residual = 0.00147148422909, No Iterations 4
smoothSolver:  Solving for Uz, Initial residual = 0.0144501421253, Final residual = 0.00124461842466, No Iterations 4
GAMG:  Solving for p, Initial residual = 0.0742044182678, Final residual = 0.00157141638995, No Iterations 5
time step continuity errors : sum local = 1.54055667765, global = -0.0019500046811, cumulative = 16.903315112
ExecutionTime = 2.29 s  ClockTime = 2 s

Time = 33

smoothSolver:  Solving for Ux, Initial residual = 0.000999275478368, Final residual = 7.16842100784e-05, No Iterations 4
smoothSolver:  Solving for Uy, Initial residual = 0.0167768679571, Final residual = 0.00140133505476, No Iterations 4
smoothSolver:  Solving for Uz, Initial residual = 0.0136740532739, Final residual = 0.00117642231196, No Iterations 4
GAMG:  Solving for p, Initial residual = 0.0710602816125, Final residual = 0.00211766776801, No Iterations 5
time step continuity errors : sum local = 1.93904257837, global = 0.00621474655375, cumulative = 16.9095298585
ExecutionTime = 2.36 s  ClockTime = 2 s

Time = 34

smoothSolver:  Solving for Ux, Initial residual = 0.000971605347561, Final residual = 7.02947910504e-05, No Iterations 4
smoothSolver:  Solving for Uy, Initial residual = 0.0149981292243, Final residual = 0.00124034515441, No Iterations 4
smoothSolver:  Solving for Uz, Initial residual = 0.0125225983868, Final residual = 0.00106902108824, No Iterations 4
GAMG:  Solving for p, Initial residual = 0.0738492016572, Final residual = 0.00248241418776, No Iterations 5
time step continuity errors : sum local = 2.06131084563, global = 0.00941962134294, cumulative = 16.9189494799
ExecutionTime = 2.41 s  ClockTime = 2 s

Time = 35

smoothSolver:  Solving for Ux, Initial residual = 0.000946502666155, Final residual = 6.90666347272e-05, No Iterations 4
smoothSolver:  Solving for Uy, Initial residual = 0.0133818939267, Final residual = 0.00108232656376, No Iterations 4
smoothSolver:  Solving for Uz, Initial residual = 0.0112090373832, Final residual = 0.00094617202491, No Iterations 4
GAMG:  Solving for p, Initial residual = 0.0830793564112, Final residual = 0.00283457902561, No Iterations 5
time step continuity errors : sum local = 2.08722156309, global = 0.0209064662707, cumulative = 16.9398559461
ExecutionTime = 2.49 s  ClockTime = 2 s

Time = 36

smoothSolver:  Solving for Ux, Initial residual = 0.00092857324756, Final residual = 6.79948143205e-05, No Iterations 4
smoothSolver:  Solving for Uy, Initial residual = 0.0119103064723, Final residual = 0.000939990991002, No Iterations 4
smoothSolver:  Solving for Uz, Initial residual = 0.0100193707357, Final residual = 0.00083379978898, No Iterations 4
GAMG:  Solving for p, Initial residual = 0.0930146571846, Final residual = 0.00158380115178, No Iterations 6
time step continuity errors : sum local = 1.02680390435, global = 0.00450178162131, cumulative = 16.9443577278
ExecutionTime = 2.56 s  ClockTime = 2 s

Time = 37

smoothSolver:  Solving for Ux, Initial residual = 0.000910880666782, Final residual = 6.7062158759e-05, No Iterations 4
smoothSolver:  Solving for Uy, Initial residual = 0.0107660559441, Final residual = 0.000844242504604, No Iterations 4
smoothSolver:  Solving for Uz, Initial residual = 0.00919631437662, Final residual = 0.000757058790621, No Iterations 4
GAMG:  Solving for p, Initial residual = 0.097655229764, Final residual = 0.0043920933716, No Iterations 4
time step continuity errors : sum local = 2.5653540379, global = 0.00493793041872, cumulative = 16.9492956582
ExecutionTime = 2.63 s  ClockTime = 2 s

Time = 38

smoothSolver:  Solving for Ux, Initial residual = 0.000894278423637, Final residual = 6.62052380992e-05, No Iterations 4
smoothSolver:  Solving for Uy, Initial residual = 0.0104189257648, Final residual = 0.000830654857857, No Iterations 4
smoothSolver:  Solving for Uz, Initial residual = 0.00894263645625, Final residual = 0.000739468509311, No Iterations 4
GAMG:  Solving for p, Initial residual = 0.0926293677273, Final residual = 0.00435977755323, No Iterations 4
time step continuity errors : sum local = 2.44070494259, global = -0.00190567696083, cumulative = 16.9473899812
ExecutionTime = 2.69 s  ClockTime = 2 s

Time = 39

smoothSolver:  Solving for Ux, Initial residual = 0.000878238063108, Final residual = 6.53487219231e-05, No Iterations 4
smoothSolver:  Solving for Uy, Initial residual = 0.00986837560928, Final residual = 0.000800168251083, No Iterations 4
smoothSolver:  Solving for Uz, Initial residual = 0.0092050977762, Final residual = 0.000777013599493, No Iterations 4
GAMG:  Solving for p, Initial residual = 0.0835354683027, Final residual = 0.00334866756075, No Iterations 4
time step continuity errors : sum local = 1.83400723344, global = -0.0086657943279, cumulative = 16.9387241869
ExecutionTime = 2.76 s  ClockTime = 2 s

Time = 40

smoothSolver:  Solving for Ux, Initial residual = 0.000864478560791, Final residual = 6.45438605142e-05, No Iterations 4
smoothSolver:  Solving for Uy, Initial residual = 0.00965574602977, Final residual = 0.000795325314686, No Iterations 4
smoothSolver:  Solving for Uz, Initial residual = 0.00944124185998, Final residual = 0.000804456370523, No Iterations 4
GAMG:  Solving for p, Initial residual = 0.0728710843582, Final residual = 0.00123094830337, No Iterations 5
time step continuity errors : sum local = 0.66711452531, global = -0.00537452303453, cumulative = 16.9333496639
ExecutionTime = 2.82 s  ClockTime = 2 s

Time = 41

smoothSolver:  Solving for Ux, Initial residual = 0.000850091942548, Final residual = 6.37834841287e-05, No Iterations 4
smoothSolver:  Solving for Uy, Initial residual = 0.00938938079556, Final residual = 0.00078098151215, No Iterations 4
smoothSolver:  Solving for Uz, Initial residual = 0.0094885762817, Final residual = 0.000811224722127, No Iterations 4
GAMG:  Solving for p, Initial residual = 0.0607874245647, Final residual = 0.00295726096737, No Iterations 4
time step continuity errors : sum local = 1.64219639932, global = -0.0127518152231, cumulative = 16.9205978486
ExecutionTime = 2.87 s  ClockTime = 2 s

Time = 42

smoothSolver:  Solving for Ux, Initial residual = 0.00083659223908, Final residual = 6.3117502463e-05, No Iterations 4
smoothSolver:  Solving for Uy, Initial residual = 0.00910139619297, Final residual = 0.00075780649128, No Iterations 4
smoothSolver:  Solving for Uz, Initial residual = 0.0092374250416, Final residual = 0.000789328435955, No Iterations 4
GAMG:  Solving for p, Initial residual = 0.0546504909123, Final residual = 0.00092063753625, No Iterations 6
time step continuity errors : sum local = 0.505424045321, global = -0.00639313507322, cumulative = 16.9142047136
ExecutionTime = 2.95 s  ClockTime = 3 s

Time = 43

smoothSolver:  Solving for Ux, Initial residual = 0.000822054184052, Final residual = 6.22996634096e-05, No Iterations 4
smoothSolver:  Solving for Uy, Initial residual = 0.00848596938575, Final residual = 0.000703798341653, No Iterations 4
smoothSolver:  Solving for Uz, Initial residual = 0.00886092000589, Final residual = 0.000755156602792, No Iterations 4
GAMG:  Solving for p, Initial residual = 0.0513137314667, Final residual = 0.00172153042872, No Iterations 5
time step continuity errors : sum local = 0.939754592829, global = -0.00555873547867, cumulative = 16.9086459781
ExecutionTime = 3.01 s  ClockTime = 3 s

Time = 44

smoothSolver:  Solving for Ux, Initial residual = 0.000808591176843, Final residual = 6.15643681894e-05, No Iterations 4
smoothSolver:  Solving for Uy, Initial residual = 0.00759542016918, Final residual = 0.000625292110715, No Iterations 4
smoothSolver:  Solving for Uz, Initial residual = 0.00841982470685, Final residual = 0.000715238351936, No Iterations 4
GAMG:  Solving for p, Initial residual = 0.0515885452638, Final residual = 0.00168391494815, No Iterations 5
time step continuity errors : sum local = 0.895045189224, global = 0.00138426911855, cumulative = 16.9100302472
ExecutionTime = 3.08 s  ClockTime = 3 s

Time = 45

smoothSolver:  Solving for Ux, Initial residual = 0.000795647146836, Final residual = 6.08920902953e-05, No Iterations 4
smoothSolver:  Solving for Uy, Initial residual = 0.00679573068523, Final residual = 0.000556448623273, No Iterations 4
smoothSolver:  Solving for Uz, Initial residual = 0.00798503971211, Final residual = 0.000675397443382, No Iterations 4
GAMG:  Solving for p, Initial residual = 0.0515136792528, Final residual = 0.00120042785204, No Iterations 5
time step continuity errors : sum local = 0.619702668761, global = 0.00407626030245, cumulative = 16.9141065075
ExecutionTime = 3.15 s  ClockTime = 3 s

Time = 46

smoothSolver:  Solving for Ux, Initial residual = 0.000782272704716, Final residual = 6.01692021661e-05, No Iterations 4
smoothSolver:  Solving for Uy, Initial residual = 0.0059232426609, Final residual = 0.000480080951267, No Iterations 4
smoothSolver:  Solving for Uz, Initial residual = 0.0076169248664, Final residual = 0.000642174640838, No Iterations 4
GAMG:  Solving for p, Initial residual = 0.0514069376571, Final residual = 0.00200160743584, No Iterations 5
time step continuity errors : sum local = 0.986240984591, global = 0.00505195326032, cumulative = 16.9191584608
ExecutionTime = 3.22 s  ClockTime = 3 s

Time = 47

smoothSolver:  Solving for Ux, Initial residual = 0.000769884386261, Final residual = 5.94025835394e-05, No Iterations 4
smoothSolver:  Solving for Uy, Initial residual = 0.00530747057038, Final residual = 0.000424802148654, No Iterations 4
smoothSolver:  Solving for Uz, Initial residual = 0.00740254114306, Final residual = 0.000623770181682, No Iterations 4
GAMG:  Solving for p, Initial residual = 0.050828490778, Final residual = 0.00118419551518, No Iterations 5
time step continuity errors : sum local = 0.548119030003, global = 0.0041970800333, cumulative = 16.9233555408
ExecutionTime = 3.29 s  ClockTime = 3 s

Time = 48

smoothSolver:  Solving for Ux, Initial residual = 0.00075828265726, Final residual = 5.85911357554e-05, No Iterations 4
smoothSolver:  Solving for Uy, Initial residual = 0.0050930450284, Final residual = 0.000405464346176, No Iterations 4
smoothSolver:  Solving for Uz, Initial residual = 0.00741621935985, Final residual = 0.000627787471699, No Iterations 4
GAMG:  Solving for p, Initial residual = 0.04799732319, Final residual = 0.000935226263297, No Iterations 5
time step continuity errors : sum local = 0.412886864551, global = 0.00476225896918, cumulative = 16.9281177998
ExecutionTime = 3.35 s  ClockTime = 3 s

Time = 49

smoothSolver:  Solving for Ux, Initial residual = 0.000746513653634, Final residual = 5.77958514156e-05, No Iterations 4
smoothSolver:  Solving for Uy, Initial residual = 0.00494026656921, Final residual = 0.000400125638348, No Iterations 4
smoothSolver:  Solving for Uz, Initial residual = 0.00748310327897, Final residual = 0.000638539511908, No Iterations 4
GAMG:  Solving for p, Initial residual = 0.0450605764027, Final residual = 0.00108784558228, No Iterations 5
time step continuity errors : sum local = 0.449721840167, global = 0.00885757733965, cumulative = 16.9369753771
ExecutionTime = 3.43 s  ClockTime = 3 s

Time = 50

smoothSolver:  Solving for Ux, Initial residual = 0.000735434360332, Final residual = 5.70129291427e-05, No Iterations 4
smoothSolver:  Solving for Uy, Initial residual = 0.00520458317357, Final residual = 0.00043189936429, No Iterations 4
smoothSolver:  Solving for Uz, Initial residual = 0.00751291212152, Final residual = 0.000642963942918, No Iterations 4
GAMG:  Solving for p, Initial residual = 0.0408063849293, Final residual = 0.00196531027825, No Iterations 4
time step continuity errors : sum local = 0.777745194386, global = -0.00137317366019, cumulative = 16.9356022034
ExecutionTime = 3.49 s  ClockTime = 3 s

Time = 51

smoothSolver:  Solving for Ux, Initial residual = 0.000725695451619, Final residual = 5.63127503444e-05, No Iterations 4
smoothSolver:  Solving for Uy, Initial residual = 0.00531749015555, Final residual = 0.000445328579482, No Iterations 4
smoothSolver:  Solving for Uz, Initial residual = 0.00746262962598, Final residual = 0.000638862544338, No Iterations 4
GAMG:  Solving for p, Initial residual = 0.0366150644576, Final residual = 0.00137524403843, No Iterations 4
time step continuity errors : sum local = 0.529311430963, global = 0.00210436708517, cumulative = 16.9377065705
ExecutionTime = 3.56 s  ClockTime = 3 s

Time = 52

smoothSolver:  Solving for Ux, Initial residual = 0.000715453613812, Final residual = 5.55993010014e-05, No Iterations 4
smoothSolver:  Solving for Uy, Initial residual = 0.00507054860837, Final residual = 0.000421225512115, No Iterations 4
smoothSolver:  Solving for Uz, Initial residual = 0.0073231455039, Final residual = 0.000626842535666, No Iterations 4
GAMG:  Solving for p, Initial residual = 0.0337213565736, Final residual = 0.00115035993912, No Iterations 5
time step continuity errors : sum local = 0.436130648099, global = 0.000854979466633, cumulative = 16.93856155
ExecutionTime = 3.62 s  ClockTime = 3 s

Time = 53

smoothSolver:  Solving for Ux, Initial residual = 0.000706067713007, Final residual = 5.48938371365e-05, No Iterations 4
smoothSolver:  Solving for Uy, Initial residual = 0.00481533985767, Final residual = 0.000396330320962, No Iterations 4
smoothSolver:  Solving for Uz, Initial residual = 0.00708632670121, Final residual = 0.00060585952509, No Iterations 4
GAMG:  Solving for p, Initial residual = 0.0326007074877, Final residual = 0.0010994284443, No Iterations 5
time step continuity errors : sum local = 0.408688677864, global = 0.00114129884099, cumulative = 16.9397028488
ExecutionTime = 3.69 s  ClockTime = 3 s

Time = 54

smoothSolver:  Solving for Ux, Initial residual = 0.000695427768358, Final residual = 5.41411213411e-05, No Iterations 4
smoothSolver:  Solving for Uy, Initial residual = 0.00428538280593, Final residual = 0.000346517732634, No Iterations 4
smoothSolver:  Solving for Uz, Initial residual = 0.0068365817709, Final residual = 0.000583468440569, No Iterations 4
GAMG:  Solving for p, Initial residual = 0.0316060932456, Final residual = 0.00102583583203, No Iterations 5
time step continuity errors : sum local = 0.375292820415, global = 0.0023845590828, cumulative = 16.9420874079
ExecutionTime = 3.75 s  ClockTime = 3 s

Time = 55

smoothSolver:  Solving for Ux, Initial residual = 0.000685907417195, Final residual = 5.3418461527e-05, No Iterations 4
smoothSolver:  Solving for Uy, Initial residual = 0.00387950426663, Final residual = 0.000311863811423, No Iterations 4
smoothSolver:  Solving for Uz, Initial residual = 0.00659535838121, Final residual = 0.000561376384837, No Iterations 4
GAMG:  Solving for p, Initial residual = 0.0307540903737, Final residual = 0.000705696786263, No Iterations 6
time step continuity errors : sum local = 0.254373542795, global = 0.000936805376091, cumulative = 16.9430242133
ExecutionTime = 3.82 s  ClockTime = 3 s

Time = 56

smoothSolver:  Solving for Ux, Initial residual = 0.000674110428379, Final residual = 5.26960397175e-05, No Iterations 4
smoothSolver:  Solving for Uy, Initial residual = 0.00353534854944, Final residual = 0.000281660960349, No Iterations 4
smoothSolver:  Solving for Uz, Initial residual = 0.0064151581926, Final residual = 0.00054547190603, No Iterations 4
GAMG:  Solving for p, Initial residual = 0.0297031934026, Final residual = 0.00064797969423, No Iterations 6
time step continuity errors : sum local = 0.228792550502, global = 0.00128709751159, cumulative = 16.9443113108
ExecutionTime = 3.88 s  ClockTime = 3 s

Time = 57

smoothSolver:  Solving for Ux, Initial residual = 0.000664407427518, Final residual = 5.20036275146e-05, No Iterations 4
smoothSolver:  Solving for Uy, Initial residual = 0.00338913391834, Final residual = 0.000270079173265, No Iterations 4
smoothSolver:  Solving for Uz, Initial residual = 0.00633305327687, Final residual = 0.000540290278379, No Iterations 4
GAMG:  Solving for p, Initial residual = 0.0278745109338, Final residual = 0.000811965458823, No Iterations 5
time step continuity errors : sum local = 0.280929348317, global = 0.00157180774104, cumulative = 16.9458831186
ExecutionTime = 3.95 s  ClockTime = 4 s

Time = 58

smoothSolver:  Solving for Ux, Initial residual = 0.000655188281841, Final residual = 5.14830926978e-05, No Iterations 4
smoothSolver:  Solving for Uy, Initial residual = 0.0033713843539, Final residual = 0.000274307377201, No Iterations 4
smoothSolver:  Solving for Uz, Initial residual = 0.00639640211069, Final residual = 0.000548710210522, No Iterations 4
GAMG:  Solving for p, Initial residual = 0.0255247506774, Final residual = 0.000495170733319, No Iterations 5
time step continuity errors : sum local = 0.167726522071, global = 0.00118307611968, cumulative = 16.9470661947
ExecutionTime = 4.01 s  ClockTime = 4 s

Time = 59

smoothSolver:  Solving for Ux, Initial residual = 0.00064855582814, Final residual = 5.1034182752e-05, No Iterations 4
smoothSolver:  Solving for Uy, Initial residual = 0.00338485863394, Final residual = 0.000279455030072, No Iterations 4
smoothSolver:  Solving for Uz, Initial residual = 0.00645343621631, Final residual = 0.000554797292199, No Iterations 4
GAMG:  Solving for p, Initial residual = 0.0229873575418, Final residual = 0.000580662098916, No Iterations 5
time step continuity errors : sum local = 0.192215427825, global = 0.00105069767263, cumulative = 16.9481168923
ExecutionTime = 4.08 s  ClockTime = 4 s

Time = 60

smoothSolver:  Solving for Ux, Initial residual = 0.00064252946572, Final residual = 5.06669833937e-05, No Iterations 4
smoothSolver:  Solving for Uy, Initial residual = 0.00333455918836, Final residual = 0.000278250774821, No Iterations 4
smoothSolver:  Solving for Uz, Initial residual = 0.00644138276661, Final residual = 0.000553882616213, No Iterations 4
GAMG:  Solving for p, Initial residual = 0.0212200617896, Final residual = 0.000463962544659, No Iterations 5
time step continuity errors : sum local = 0.14832819511, global = 0.00179025904961, cumulative = 16.9499071514
ExecutionTime = 4.14 s  ClockTime = 4 s

Time = 61

smoothSolver:  Solving for Ux, Initial residual = 0.000636104741514, Final residual = 5.0281432808e-05, No Iterations 4
smoothSolver:  Solving for Uy, Initial residual = 0.00327337243623, Final residual = 0.000273711193885, No Iterations 4
smoothSolver:  Solving for Uz, Initial residual = 0.00637884294452, Final residual = 0.00054852515751, No Iterations 4
GAMG:  Solving for p, Initial residual = 0.0194823845489, Final residual = 0.000381450221392, No Iterations 5
time step continuity errors : sum local = 0.119721381232, global = 0.0013278932802, cumulative = 16.9512350447
ExecutionTime = 4.21 s  ClockTime = 4 s

Time = 62

smoothSolver:  Solving for Ux, Initial residual = 0.000628958692168, Final residual = 4.98429436153e-05, No Iterations 4
smoothSolver:  Solving for Uy, Initial residual = 0.00307014538684, Final residual = 0.000256255916405, No Iterations 4
smoothSolver:  Solving for Uz, Initial residual = 0.00627880916563, Final residual = 0.000539794558968, No Iterations 4
GAMG:  Solving for p, Initial residual = 0.0186154969448, Final residual = 0.000400889014463, No Iterations 5
time step continuity errors : sum local = 0.123680701991, global = 0.00056889636749, cumulative = 16.951803941
ExecutionTime = 4.28 s  ClockTime = 4 s

Time = 63

smoothSolver:  Solving for Ux, Initial residual = 0.000621896154398, Final residual = 4.93559651567e-05, No Iterations 4
smoothSolver:  Solving for Uy, Initial residual = 0.00281351408837, Final residual = 0.000234040358465, No Iterations 4
smoothSolver:  Solving for Uz, Initial residual = 0.00615537055687, Final residual = 0.000529084150718, No Iterations 4
GAMG:  Solving for p, Initial residual = 0.0181523748634, Final residual = 0.000467023686065, No Iterations 5
time step continuity errors : sum local = 0.141643633781, global = 0.0015686344529, cumulative = 16.9533725755
ExecutionTime = 4.34 s  ClockTime = 4 s

Time = 64

smoothSolver:  Solving for Ux, Initial residual = 0.000615005539878, Final residual = 4.88337017163e-05, No Iterations 4
smoothSolver:  Solving for Uy, Initial residual = 0.00254795319445, Final residual = 0.000210915769147, No Iterations 4
smoothSolver:  Solving for Uz, Initial residual = 0.00603371689581, Final residual = 0.000518389510571, No Iterations 4
GAMG:  Solving for p, Initial residual = 0.0177723950177, Final residual = 0.000568333159568, No Iterations 5
time step continuity errors : sum local = 0.169871315234, global = 0.000907387497005, cumulative = 16.954279963
ExecutionTime = 4.39 s  ClockTime = 4 s

Time = 65

smoothSolver:  Solving for Ux, Initial residual = 0.000608316096034, Final residual = 4.83195313794e-05, No Iterations 4
smoothSolver:  Solving for Uy, Initial residual = 0.00233471817469, Final residual = 0.000192152444373, No Iterations 4
smoothSolver:  Solving for Uz, Initial residual = 0.005931397884, Final residual = 0.000509605273252, No Iterations 4
GAMG:  Solving for p, Initial residual = 0.0173934986172, Final residual = 0.000495155295214, No Iterations 5
time step continuity errors : sum local = 0.144046282511, global = 0.000728800523583, cumulative = 16.9550087635
ExecutionTime = 4.47 s  ClockTime = 4 s

Time = 66

smoothSolver:  Solving for Ux, Initial residual = 0.000601732094013, Final residual = 4.77910489055e-05, No Iterations 4
smoothSolver:  Solving for Uy, Initial residual = 0.00221353837792, Final residual = 0.000182084654789, No Iterations 4
smoothSolver:  Solving for Uz, Initial residual = 0.0058840999084, Final residual = 0.000506144292433, No Iterations 4
GAMG:  Solving for p, Initial residual = 0.016372448513, Final residual = 0.000449067337366, No Iterations 5
time step continuity errors : sum local = 0.127849466341, global = 0.000579260023833, cumulative = 16.9555880235
ExecutionTime = 4.54 s  ClockTime = 4 s

Time = 67

smoothSolver:  Solving for Ux, Initial residual = 0.000594618454814, Final residual = 4.72367862152e-05, No Iterations 4
smoothSolver:  Solving for Uy, Initial residual = 0.00216388602995, Final residual = 0.000180581412933, No Iterations 4
smoothSolver:  Solving for Uz, Initial residual = 0.00587491241009, Final residual = 0.000506630647409, No Iterations 4
GAMG:  Solving for p, Initial residual = 0.0151881335123, Final residual = 0.000394645332906, No Iterations 5
time step continuity errors : sum local = 0.110141961817, global = 0.000494119785838, cumulative = 16.9560821433
ExecutionTime = 4.6 s  ClockTime = 4 s

Time = 68

smoothSolver:  Solving for Ux, Initial residual = 0.00058747596438, Final residual = 4.66345952002e-05, No Iterations 4
smoothSolver:  Solving for Uy, Initial residual = 0.00215350252126, Final residual = 0.000182554503834, No Iterations 4
smoothSolver:  Solving for Uz, Initial residual = 0.00588005122476, Final residual = 0.000508219045665, No Iterations 4
GAMG:  Solving for p, Initial residual = 0.0139360436054, Final residual = 0.000313464396291, No Iterations 5
time step continuity errors : sum local = 0.0858202007344, global = 0.00057357379848, cumulative = 16.9566557171
ExecutionTime = 4.67 s  ClockTime = 4 s

Time = 69

smoothSolver:  Solving for Ux, Initial residual = 0.000579819004304, Final residual = 4.60215453454e-05, No Iterations 4
smoothSolver:  Solving for Uy, Initial residual = 0.0022089158795, Final residual = 0.000188593635755, No Iterations 4
smoothSolver:  Solving for Uz, Initial residual = 0.00587032760804, Final residual = 0.000508256567861, No Iterations 4
GAMG:  Solving for p, Initial residual = 0.0126009902434, Final residual = 0.000302374032933, No Iterations 5
time step continuity errors : sum local = 0.0815681126459, global = 0.000859898525325, cumulative = 16.9575156156
ExecutionTime = 4.74 s  ClockTime = 4 s

Time = 70

smoothSolver:  Solving for Ux, Initial residual = 0.00057219372963, Final residual = 4.54292291104e-05, No Iterations 4
smoothSolver:  Solving for Uy, Initial residual = 0.00217307319856, Final residual = 0.000185540982411, No Iterations 4
smoothSolver:  Solving for Uz, Initial residual = 0.00583841634674, Final residual = 0.000506403938068, No Iterations 4
GAMG:  Solving for p, Initial residual = 0.0114961498906, Final residual = 0.000290991379007, No Iterations 5
time step continuity errors : sum local = 0.0772822258758, global = 0.00109136451472, cumulative = 16.9586069802
ExecutionTime = 4.81 s  ClockTime = 4 s

Time = 71

smoothSolver:  Solving for Ux, Initial residual = 0.000564605597004, Final residual = 4.48394439803e-05, No Iterations 4
smoothSolver:  Solving for Uy, Initial residual = 0.00212073463607, Final residual = 0.000180905993244, No Iterations 4
smoothSolver:  Solving for Uz, Initial residual = 0.00578952275121, Final residual = 0.000502625900931, No Iterations 4
GAMG:  Solving for p, Initial residual = 0.0107405794422, Final residual = 0.000266775854112, No Iterations 5
time step continuity errors : sum local = 0.0697908596057, global = 0.000275209880315, cumulative = 16.95888219
ExecutionTime = 4.88 s  ClockTime = 4 s

Time = 72

smoothSolver:  Solving for Ux, Initial residual = 0.000556909358633, Final residual = 4.42636730056e-05, No Iterations 4
smoothSolver:  Solving for Uy, Initial residual = 0.00202299217909, Final residual = 0.000171420465938, No Iterations 4
smoothSolver:  Solving for Uz, Initial residual = 0.00573325084427, Final residual = 0.000498106252019, No Iterations 4
GAMG:  Solving for p, Initial residual = 0.0103114208606, Final residual = 0.000388702977608, No Iterations 5
time step continuity errors : sum local = 0.100195304552, global = 0.000704266813748, cumulative = 16.9595864569
ExecutionTime = 4.95 s  ClockTime = 5 s

Time = 73

smoothSolver:  Solving for Ux, Initial residual = 0.00054984691677, Final residual = 4.36954825497e-05, No Iterations 4
smoothSolver:  Solving for Uy, Initial residual = 0.00193906373264, Final residual = 0.000163895377453, No Iterations 4
smoothSolver:  Solving for Uz, Initial residual = 0.00567269204569, Final residual = 0.000492982325512, No Iterations 4
GAMG:  Solving for p, Initial residual = 0.0101616675545, Final residual = 0.000266271638461, No Iterations 5
time step continuity errors : sum local = 0.0672021518358, global = 0.000370316508788, cumulative = 16.9599567734
ExecutionTime = 5.01 s  ClockTime = 5 s

Time = 74

smoothSolver:  Solving for Ux, Initial residual = 0.000543324035205, Final residual = 4.31381076064e-05, No Iterations 4
smoothSolver:  Solving for Uy, Initial residual = 0.00186598784505, Final residual = 0.000157044630393, No Iterations 4
smoothSolver:  Solving for Uz, Initial residual = 0.00563184202878, Final residual = 0.00048978496894, No Iterations 4
GAMG:  Solving for p, Initial residual = 0.00965895930988, Final residual = 0.000378972193954, No Iterations 5
time step continuity errors : sum local = 0.0944781442532, global = 0.000675724890292, cumulative = 16.9606324983
ExecutionTime = 5.08 s  ClockTime = 5 s

Time = 75

smoothSolver:  Solving for Ux, Initial residual = 0.00053637260116, Final residual = 4.25699607184e-05, No Iterations 4
smoothSolver:  Solving for Uy, Initial residual = 0.00181875387978, Final residual = 0.000153743929831, No Iterations 4
smoothSolver:  Solving for Uz, Initial residual = 0.00560330584283, Final residual = 0.000487720249386, No Iterations 4
GAMG:  Solving for p, Initial residual = 0.00935138107331, Final residual = 0.000245096308596, No Iterations 5
time step continuity errors : sum local = 0.059824237088, global = 0.000341800165987, cumulative = 16.9609742984
ExecutionTime = 5.15 s  ClockTime = 5 s

Time = 76

smoothSolver:  Solving for Ux, Initial residual = 0.000529913708721, Final residual = 4.20026990223e-05, No Iterations 4
smoothSolver:  Solving for Uy, Initial residual = 0.00179097169427, Final residual = 0.000151922818535, No Iterations 4
smoothSolver:  Solving for Uz, Initial residual = 0.00559606762806, Final residual = 0.000487461803242, No Iterations 4
GAMG:  Solving for p, Initial residual = 0.008656552596, Final residual = 0.000246421647623, No Iterations 5
time step continuity errors : sum local = 0.059318311567, global = 0.000303572458916, cumulative = 16.9612778709
ExecutionTime = 5.21 s  ClockTime = 5 s

Time = 77

smoothSolver:  Solving for Ux, Initial residual = 0.000522570784446, Final residual = 4.14536021479e-05, No Iterations 4
smoothSolver:  Solving for Uy, Initial residual = 0.00177554289456, Final residual = 0.000152117062418, No Iterations 4
smoothSolver:  Solving for Uz, Initial residual = 0.00559422788987, Final residual = 0.000487581944203, No Iterations 4
GAMG:  Solving for p, Initial residual = 0.00796293760791, Final residual = 0.000268942275654, No Iterations 4
time step continuity errors : sum local = 0.0637762339678, global = 0.000636371620634, cumulative = 16.9619142425
ExecutionTime = 5.27 s  ClockTime = 5 s

Time = 78

smoothSolver:  Solving for Ux, Initial residual = 0.000515736399224, Final residual = 4.09013932978e-05, No Iterations 4
smoothSolver:  Solving for Uy, Initial residual = 0.00176024440645, Final residual = 0.000151601344486, No Iterations 4
smoothSolver:  Solving for Uz, Initial residual = 0.00559073097209, Final residual = 0.0004875309835, No Iterations 4
GAMG:  Solving for p, Initial residual = 0.00724251060763, Final residual = 0.000285618376968, No Iterations 4
time step continuity errors : sum local = 0.0670780634327, global = 0.000180641485228, cumulative = 16.962094884
ExecutionTime = 5.36 s  ClockTime = 5 s

Time = 79

smoothSolver:  Solving for Ux, Initial residual = 0.000508658422343, Final residual = 4.03497280002e-05, No Iterations 4
smoothSolver:  Solving for Uy, Initial residual = 0.00170853406884, Final residual = 0.000148028025247, No Iterations 4
smoothSolver:  Solving for Uz, Initial residual = 0.00557199897405, Final residual = 0.000486149829249, No Iterations 4
GAMG:  Solving for p, Initial residual = 0.00677987600213, Final residual = 0.000308551571666, No Iterations 4
time step continuity errors : sum local = 0.0711313305345, global = 0.000714097876733, cumulative = 16.9628089819
ExecutionTime = 5.43 s  ClockTime = 5 s

Time = 80

smoothSolver:  Solving for Ux, Initial residual = 0.000501787572514, Final residual = 3.98233345619e-05, No Iterations 4
smoothSolver:  Solving for Uy, Initial residual = 0.00167643347566, Final residual = 0.000145634564383, No Iterations 4
smoothSolver:  Solving for Uz, Initial residual = 0.00554883137375, Final residual = 0.000484419482819, No Iterations 4
GAMG:  Solving for p, Initial residual = 0.00631040135976, Final residual = 0.00015257867875, No Iterations 6
time step continuity errors : sum local = 0.0347634232546, global = 5.4368728341e-05, cumulative = 16.9628633506
ExecutionTime = 5.5 s  ClockTime = 5 s

Time = 81

smoothSolver:  Solving for Ux, Initial residual = 0.000495177223938, Final residual = 3.93303046162e-05, No Iterations 4
smoothSolver:  Solving for Uy, Initial residual = 0.00161077781316, Final residual = 0.000139758941844, No Iterations 4
smoothSolver:  Solving for Uz, Initial residual = 0.00551295473381, Final residual = 0.000481490268292, No Iterations 4
GAMG:  Solving for p, Initial residual = 0.0061525235634, Final residual = 0.000263145417338, No Iterations 5
time step continuity errors : sum local = 0.0588183976158, global = 0.000795601794842, cumulative = 16.9636589524
ExecutionTime = 5.55 s  ClockTime = 5 s

Time = 82

smoothSolver:  Solving for Ux, Initial residual = 0.000489048107723, Final residual = 3.88579150547e-05, No Iterations 4
smoothSolver:  Solving for Uy, Initial residual = 0.0015684227028, Final residual = 0.000136128057402, No Iterations 4
smoothSolver:  Solving for Uz, Initial residual = 0.00547981799274, Final residual = 0.000478940688409, No Iterations 4
GAMG:  Solving for p, Initial residual = 0.00593314722669, Final residual = 0.000201511264683, No Iterations 5
time step continuity errors : sum local = 0.0443536781365, global = 0.000290442557068, cumulative = 16.9639493949
ExecutionTime = 5.62 s  ClockTime = 5 s

Time = 83

smoothSolver:  Solving for Ux, Initial residual = 0.000483704450477, Final residual = 3.84043591803e-05, No Iterations 4
smoothSolver:  Solving for Uy, Initial residual = 0.00154627167134, Final residual = 0.000134077778199, No Iterations 4
smoothSolver:  Solving for Uz, Initial residual = 0.00545668647035, Final residual = 0.000477326373543, No Iterations 4
GAMG:  Solving for p, Initial residual = 0.00566155724911, Final residual = 0.000201974343252, No Iterations 5
time step continuity errors : sum local = 0.0439174473945, global = 0.000281281131528, cumulative = 16.9642306761
ExecutionTime = 5.71 s  ClockTime = 5 s

Time = 84

smoothSolver:  Solving for Ux, Initial residual = 0.000478074361225, Final residual = 3.79563388592e-05, No Iterations 4
smoothSolver:  Solving for Uy, Initial residual = 0.00150867042013, Final residual = 0.000130451177392, No Iterations 4
smoothSolver:  Solving for Uz, Initial residual = 0.00544537644596, Final residual = 0.000476791779289, No Iterations 4
GAMG:  Solving for p, Initial residual = 0.00543123081472, Final residual = 0.000228735360233, No Iterations 4
time step continuity errors : sum local = 0.0490587745045, global = 0.000407256244916, cumulative = 16.9646379323
ExecutionTime = 5.79 s  ClockTime = 5 s

Time = 85

smoothSolver:  Solving for Ux, Initial residual = 0.000472151888702, Final residual = 3.74809564151e-05, No Iterations 4
smoothSolver:  Solving for Uy, Initial residual = 0.00151591409761, Final residual = 0.000131202665987, No Iterations 4
smoothSolver:  Solving for Uz, Initial residual = 0.00544390955015, Final residual = 0.000477053167687, No Iterations 4
GAMG:  Solving for p, Initial residual = 0.00510914859553, Final residual = 0.000238635420175, No Iterations 4
time step continuity errors : sum local = 0.0507036792624, global = 0.000285185032843, cumulative = 16.9649231174
ExecutionTime = 5.86 s  ClockTime = 5 s

Time = 86

smoothSolver:  Solving for Ux, Initial residual = 0.000467576576198, Final residual = 3.70549127043e-05, No Iterations 4
smoothSolver:  Solving for Uy, Initial residual = 0.00148497844213, Final residual = 0.00012815176156, No Iterations 4
smoothSolver:  Solving for Uz, Initial residual = 0.00544591341859, Final residual = 0.000477453604427, No Iterations 4
GAMG:  Solving for p, Initial residual = 0.00481963141676, Final residual = 0.000236436378532, No Iterations 4
time step continuity errors : sum local = 0.0494233896501, global = 0.000257551085172, cumulative = 16.9651806684
ExecutionTime = 5.93 s  ClockTime = 5 s

Time = 87

smoothSolver:  Solving for Ux, Initial residual = 0.000462822316038, Final residual = 3.66655458587e-05, No Iterations 4
smoothSolver:  Solving for Uy, Initial residual = 0.00148846216266, Final residual = 0.000128780515939, No Iterations 4
smoothSolver:  Solving for Uz, Initial residual = 0.00544768655616, Final residual = 0.000477802759394, No Iterations 4
GAMG:  Solving for p, Initial residual = 0.00449579232596, Final residual = 0.000208796064213, No Iterations 4
time step continuity errors : sum local = 0.0428850286995, global = 0.000147878082786, cumulative = 16.9653285465
ExecutionTime = 6 s  ClockTime = 6 s

Time = 88

smoothSolver:  Solving for Ux, Initial residual = 0.000458772226567, Final residual = 3.62758327988e-05, No Iterations 4
smoothSolver:  Solving for Uy, Initial residual = 0.00148717212232, Final residual = 0.00012874929668, No Iterations 4
smoothSolver:  Solving for Uz, Initial residual = 0.00544951542013, Final residual = 0.000478149969214, No Iterations 4
GAMG:  Solving for p, Initial residual = 0.00412603703986, Final residual = 0.000204057149747, No Iterations 4
time step continuity errors : sum local = 0.0412553912971, global = 0.000207921865526, cumulative = 16.9655364684
ExecutionTime = 6.07 s  ClockTime = 6 s

Time = 89

smoothSolver:  Solving for Ux, Initial residual = 0.000452705325582, Final residual = 3.59052976613e-05, No Iterations 4
smoothSolver:  Solving for Uy, Initial residual = 0.00148397941654, Final residual = 0.000128724853942, No Iterations 4
smoothSolver:  Solving for Uz, Initial residual = 0.00545060178368, Final residual = 0.000478563082322, No Iterations 4
GAMG:  Solving for p, Initial residual = 0.00378436092286, Final residual = 0.000104638708858, No Iterations 6
time step continuity errors : sum local = 0.0208889602322, global = -5.35478622618e-06, cumulative = 16.9655311136
ExecutionTime = 6.13 s  ClockTime = 6 s

Time = 90

smoothSolver:  Solving for Ux, Initial residual = 0.000447983523997, Final residual = 3.55472237571e-05, No Iterations 4
smoothSolver:  Solving for Uy, Initial residual = 0.00147290337332, Final residual = 0.000127750320839, No Iterations 4
smoothSolver:  Solving for Uz, Initial residual = 0.00545177322792, Final residual = 0.000478838067952, No Iterations 4
GAMG:  Solving for p, Initial residual = 0.00360585799374, Final residual = 8.8226252788e-05, No Iterations 6
time step continuity errors : sum local = 0.0173542316248, global = 1.02510449878e-05, cumulative = 16.9655413646
ExecutionTime = 6.2 s  ClockTime = 6 s

Time = 91

smoothSolver:  Solving for Ux, Initial residual = 0.000443915765707, Final residual = 3.51928875483e-05, No Iterations 4
smoothSolver:  Solving for Uy, Initial residual = 0.00146062486111, Final residual = 0.000126792618183, No Iterations 4
smoothSolver:  Solving for Uz, Initial residual = 0.00545424080624, Final residual = 0.000479230501591, No Iterations 4
GAMG:  Solving for p, Initial residual = 0.00347313559003, Final residual = 0.000170099333991, No Iterations 4
time step continuity errors : sum local = 0.033040940283, global = 0.00019981619154, cumulative = 16.9657411808
ExecutionTime = 6.25 s  ClockTime = 6 s

Time = 92

smoothSolver:  Solving for Ux, Initial residual = 0.000440044288981, Final residual = 3.48280563385e-05, No Iterations 4
smoothSolver:  Solving for Uy, Initial residual = 0.00144821633043, Final residual = 0.000125752191546, No Iterations 4
smoothSolver:  Solving for Uz, Initial residual = 0.00546028379221, Final residual = 0.000479988065749, No Iterations 4
GAMG:  Solving for p, Initial residual = 0.00332279461293, Final residual = 9.64569744866e-05, No Iterations 6
time step continuity errors : sum local = 0.0185956296242, global = -5.93990297194e-05, cumulative = 16.9656817818
ExecutionTime = 6.33 s  ClockTime = 6 s

Time = 93

smoothSolver:  Solving for Ux, Initial residual = 0.00043601980235, Final residual = 3.44899233042e-05, No Iterations 4
smoothSolver:  Solving for Uy, Initial residual = 0.00142453310565, Final residual = 0.000123799459834, No Iterations 4
smoothSolver:  Solving for Uz, Initial residual = 0.00546286269889, Final residual = 0.000480272235707, No Iterations 4
GAMG:  Solving for p, Initial residual = 0.00331938449729, Final residual = 0.000147000116782, No Iterations 4
time step continuity errors : sum local = 0.0278334204004, global = 6.94445216061e-05, cumulative = 16.9657512263
ExecutionTime = 6.4 s  ClockTime = 6 s

Time = 94

smoothSolver:  Solving for Ux, Initial residual = 0.000433038272252, Final residual = 3.41731360152e-05, No Iterations 4
smoothSolver:  Solving for Uy, Initial residual = 0.00142446446137, Final residual = 0.000124020653741, No Iterations 4
smoothSolver:  Solving for Uz, Initial residual = 0.00547132012017, Final residual = 0.000481155601682, No Iterations 4
GAMG:  Solving for p, Initial residual = 0.00311483511313, Final residual = 9.36674554963e-05, No Iterations 6
time step continuity errors : sum local = 0.0175410850923, global = -6.87956518995e-05, cumulative = 16.9656824307
ExecutionTime = 6.46 s  ClockTime = 6 s

Time = 95

smoothSolver:  Solving for Ux, Initial residual = 0.000429289524674, Final residual = 3.38507473653e-05, No Iterations 4
smoothSolver:  Solving for Uy, Initial residual = 0.00140979048668, Final residual = 0.000122816710352, No Iterations 4
smoothSolver:  Solving for Uz, Initial residual = 0.00547561522745, Final residual = 0.000481569778077, No Iterations 4
GAMG:  Solving for p, Initial residual = 0.00297590013488, Final residual = 0.00013713092323, No Iterations 4
time step continuity errors : sum local = 0.0252563921502, global = 0.000140455925356, cumulative = 16.9658228866
ExecutionTime = 6.53 s  ClockTime = 6 s

Time = 96

smoothSolver:  Solving for Ux, Initial residual = 0.000425837758562, Final residual = 3.35354408912e-05, No Iterations 4
smoothSolver:  Solving for Uy, Initial residual = 0.00141360896168, Final residual = 0.000123405373729, No Iterations 4
smoothSolver:  Solving for Uz, Initial residual = 0.0054822742277, Final residual = 0.000482294751792, No Iterations 4
GAMG:  Solving for p, Initial residual = 0.00273349113509, Final residual = 8.8283803797e-05, No Iterations 6
time step continuity errors : sum local = 0.0161211621094, global = -1.7820710283e-05, cumulative = 16.9658050659
ExecutionTime = 6.59 s  ClockTime = 6 s

Time = 97

smoothSolver:  Solving for Ux, Initial residual = 0.000422230900602, Final residual = 3.32137310433e-05, No Iterations 4
smoothSolver:  Solving for Uy, Initial residual = 0.00139266882069, Final residual = 0.00012167352492, No Iterations 4
smoothSolver:  Solving for Uz, Initial residual = 0.00548528594723, Final residual = 0.000482696428125, No Iterations 4
GAMG:  Solving for p, Initial residual = 0.00256788400055, Final residual = 5.50159925781e-05, No Iterations 6
time step continuity errors : sum local = 0.00989826462768, global = 0.00012525900042, cumulative = 16.9659303249
ExecutionTime = 6.66 s  ClockTime = 6 s

Time = 98

smoothSolver:  Solving for Ux, Initial residual = 0.000418738422594, Final residual = 3.29071966038e-05, No Iterations 4
smoothSolver:  Solving for Uy, Initial residual = 0.00138509615876, Final residual = 0.000121245296761, No Iterations 4
smoothSolver:  Solving for Uz, Initial residual = 0.00548894928901, Final residual = 0.000483248736076, No Iterations 4
GAMG:  Solving for p, Initial residual = 0.00238091679742, Final residual = 6.91928348832e-05, No Iterations 6
time step continuity errors : sum local = 0.0122924049205, global = 8.74389911236e-05, cumulative = 16.9660177639
ExecutionTime = 6.71 s  ClockTime = 6 s

Time = 99

smoothSolver:  Solving for Ux, Initial residual = 0.000415111759162, Final residual = 3.25969235501e-05, No Iterations 4
smoothSolver:  Solving for Uy, Initial residual = 0.00137276175666, Final residual = 0.000120260165477, No Iterations 4
smoothSolver:  Solving for Uz, Initial residual = 0.00549223479291, Final residual = 0.000483781724763, No Iterations 4
GAMG:  Solving for p, Initial residual = 0.00224895079676, Final residual = 6.77968942602e-05, No Iterations 6
time step continuity errors : sum local = 0.0119001931687, global = 0.000101232878831, cumulative = 16.9661189968
ExecutionTime = 6.79 s  ClockTime = 6 s

Time = 100

smoothSolver:  Solving for Ux, Initial residual = 0.000411871093649, Final residual = 3.22950651596e-05, No Iterations 4
smoothSolver:  Solving for Uy, Initial residual = 0.00136130366586, Final residual = 0.000119350840503, No Iterations 4
smoothSolver:  Solving for Uz, Initial residual = 0.00549477354653, Final residual = 0.000484333321961, No Iterations 4
GAMG:  Solving for p, Initial residual = 0.00217265308005, Final residual = 7.39701605975e-05, No Iterations 6
time step continuity errors : sum local = 0.0128224749248, global = 9.2849615219e-05, cumulative = 16.9662118464
ExecutionTime = 6.86 s  ClockTime = 6 s

Time = 101

smoothSolver:  Solving for Ux, Initial residual = 0.000408407098423, Final residual = 3.19914424711e-05, No Iterations 4
smoothSolver:  Solving for Uy, Initial residual = 0.00134902445921, Final residual = 0.00011828833237, No Iterations 4
smoothSolver:  Solving for Uz, Initial residual = 0.00549741221247, Final residual = 0.000484930047777, No Iterations 4
GAMG:  Solving for p, Initial residual = 0.00211969514279, Final residual = 7.77180938463e-05, No Iterations 6
time step continuity errors : sum local = 0.0132996195434, global = 8.20337234478e-05, cumulative = 16.9662938801
ExecutionTime = 6.96 s  ClockTime = 7 s

Time = 102

smoothSolver:  Solving for Ux, Initial residual = 0.000406362926986, Final residual = 3.16958417523e-05, No Iterations 4
smoothSolver:  Solving for Uy, Initial residual = 0.00134012299949, Final residual = 0.000117517074259, No Iterations 4
smoothSolver:  Solving for Uz, Initial residual = 0.00550058061792, Final residual = 0.000485608459729, No Iterations 4
GAMG:  Solving for p, Initial residual = 0.00205214907479, Final residual = 6.4613207142e-05, No Iterations 7
time step continuity errors : sum local = 0.0109126615286, global = 2.20400863338e-05, cumulative = 16.9663159202
ExecutionTime = 7.03 s  ClockTime = 7 s

Time = 103

smoothSolver:  Solving for Ux, Initial residual = 0.000402504266423, Final residual = 3.1396846048e-05, No Iterations 4
smoothSolver:  Solving for Uy, Initial residual = 0.00133035539143, Final residual = 0.000116653379569, No Iterations 4
smoothSolver:  Solving for Uz, Initial residual = 0.00550467758733, Final residual = 0.000486380539815, No Iterations 4
GAMG:  Solving for p, Initial residual = 0.00196567699229, Final residual = 5.50698025871e-05, No Iterations 7
time step continuity errors : sum local = 0.0091780096863, global = 1.91766094862e-05, cumulative = 16.9663350968
ExecutionTime = 7.1 s  ClockTime = 7 s

Time = 104

smoothSolver:  Solving for Ux, Initial residual = 0.000399837474198, Final residual = 3.11032990783e-05, No Iterations 4
smoothSolver:  Solving for Uy, Initial residual = 0.00132782584223, Final residual = 0.000116398712127, No Iterations 4
smoothSolver:  Solving for Uz, Initial residual = 0.00550864544808, Final residual = 0.000487190585975, No Iterations 4
GAMG:  Solving for p, Initial residual = 0.00187775355042, Final residual = 5.8592316683e-05, No Iterations 7
time step continuity errors : sum local = 0.00963853333596, global = 3.26304997575e-05, cumulative = 16.9663677273
ExecutionTime = 7.16 s  ClockTime = 7 s

Time = 105

smoothSolver:  Solving for Ux, Initial residual = 0.000397339964664, Final residual = 3.0801191557e-05, No Iterations 4
smoothSolver:  Solving for Uy, Initial residual = 0.00132574334634, Final residual = 0.000116175138115, No Iterations 4
smoothSolver:  Solving for Uz, Initial residual = 0.00551325756007, Final residual = 0.000488038363026, No Iterations 4
GAMG:  Solving for p, Initial residual = 0.00178158264422, Final residual = 7.04666985954e-05, No Iterations 5
time step continuity errors : sum local = 0.0114448676011, global = 2.15650836853e-05, cumulative = 16.9663892924
ExecutionTime = 7.23 s  ClockTime = 7 s

Time = 106

smoothSolver:  Solving for Ux, Initial residual = 0.000394873381372, Final residual = 3.05004462071e-05, No Iterations 4
smoothSolver:  Solving for Uy, Initial residual = 0.00132606643362, Final residual = 0.00011618751448, No Iterations 4
smoothSolver:  Solving for Uz, Initial residual = 0.00551841370892, Final residual = 0.000488931830392, No Iterations 4
GAMG:  Solving for p, Initial residual = 0.00168933048995, Final residual = 7.80422726319e-05, No Iterations 5
time step continuity errors : sum local = 0.0125251384719, global = 0.000178986593527, cumulative = 16.966568279
ExecutionTime = 7.3 s  ClockTime = 7 s

Time = 107

smoothSolver:  Solving for Ux, Initial residual = 0.000392396531679, Final residual = 3.01958826008e-05, No Iterations 4
smoothSolver:  Solving for Uy, Initial residual = 0.00132424202838, Final residual = 0.000115969899589, No Iterations 4
smoothSolver:  Solving for Uz, Initial residual = 0.00552704722068, Final residual = 0.000490041776728, No Iterations 4
GAMG:  Solving for p, Initial residual = 0.0016013596924, Final residual = 7.49448084514e-05, No Iterations 5
time step continuity errors : sum local = 0.0118984843755, global = -2.29925462138e-05, cumulative = 16.9665452864
ExecutionTime = 7.36 s  ClockTime = 7 s

Time = 108

smoothSolver:  Solving for Ux, Initial residual = 0.000387553926771, Final residual = 2.99037868268e-05, No Iterations 4
smoothSolver:  Solving for Uy, Initial residual = 0.00132001502194, Final residual = 0.000115617665409, No Iterations 4
smoothSolver:  Solving for Uz, Initial residual = 0.00553189933606, Final residual = 0.000490867205613, No Iterations 4
GAMG:  Solving for p, Initial residual = 0.0015825782771, Final residual = 5.6166071804e-05, No Iterations 6
time step continuity errors : sum local = 0.00879346511497, global = 0.00010225902255, cumulative = 16.9666475455
ExecutionTime = 7.41 s  ClockTime = 7 s

Time = 109

smoothSolver:  Solving for Ux, Initial residual = 0.000386103205297, Final residual = 2.96307650629e-05, No Iterations 4
smoothSolver:  Solving for Uy, Initial residual = 0.00131606557244, Final residual = 0.000115196188053, No Iterations 4
smoothSolver:  Solving for Uz, Initial residual = 0.0055369602986, Final residual = 0.000491726212874, No Iterations 4
GAMG:  Solving for p, Initial residual = 0.00158586117231, Final residual = 5.29648417905e-05, No Iterations 6
time step continuity errors : sum local = 0.00820211607951, global = 0.000201171834609, cumulative = 16.9668487173
ExecutionTime = 7.49 s  ClockTime = 7 s

Time = 110

smoothSolver:  Solving for Ux, Initial residual = 0.000383802711477, Final residual = 2.93465897052e-05, No Iterations 4
smoothSolver:  Solving for Uy, Initial residual = 0.00131409667123, Final residual = 0.000115022010754, No Iterations 4
smoothSolver:  Solving for Uz, Initial residual = 0.00554092082346, Final residual = 0.000492534629173, No Iterations 4
GAMG:  Solving for p, Initial residual = 0.00157467131374, Final residual = 4.73609540479e-05, No Iterations 6
time step continuity errors : sum local = 0.00724505260736, global = 0.000183820841002, cumulative = 16.9670325381
ExecutionTime = 7.55 s  ClockTime = 7 s

Time = 111

smoothSolver:  Solving for Ux, Initial residual = 0.000381706803698, Final residual = 2.90404080213e-05, No Iterations 4
smoothSolver:  Solving for Uy, Initial residual = 0.00131194402851, Final residual = 0.000114719236964, No Iterations 4
smoothSolver:  Solving for Uz, Initial residual = 0.00554938186459, Final residual = 0.000493496146717, No Iterations 4
GAMG:  Solving for p, Initial residual = 0.00156530070729, Final residual = 6.02052681655e-05, No Iterations 6
time step continuity errors : sum local = 0.00909807867704, global = 1.60562815528e-05, cumulative = 16.9670485944
ExecutionTime = 7.62 s  ClockTime = 7 s

Time = 112

smoothSolver:  Solving for Ux, Initial residual = 0.000380864498702, Final residual = 2.87747950573e-05, No Iterations 4
smoothSolver:  Solving for Uy, Initial residual = 0.00130987643467, Final residual = 0.000114497797248, No Iterations 4
smoothSolver:  Solving for Uz, Initial residual = 0.00555480713416, Final residual = 0.000494316490368, No Iterations 4
GAMG:  Solving for p, Initial residual = 0.00154700440517, Final residual = 5.16649171247e-05, No Iterations 6
time step continuity errors : sum local = 0.00771367139766, global = 2.92792932696e-05, cumulative = 16.9670778737
ExecutionTime = 7.69 s  ClockTime = 7 s

Time = 113

smoothSolver:  Solving for Ux, Initial residual = 0.000376873444005, Final residual = 2.84697699235e-05, No Iterations 4
smoothSolver:  Solving for Uy, Initial residual = 0.00130645324472, Final residual = 0.000114158328579, No Iterations 4
smoothSolver:  Solving for Uz, Initial residual = 0.00556649197583, Final residual = 0.000495396467984, No Iterations 4
GAMG:  Solving for p, Initial residual = 0.00151318923559, Final residual = 7.30498793951e-05, No Iterations 7
time step continuity errors : sum local = 0.0107752871803, global = 0.000251230408991, cumulative = 16.9673291041
ExecutionTime = 7.75 s  ClockTime = 7 s

Time = 114

smoothSolver:  Solving for Ux, Initial residual = 0.000374395360988, Final residual = 2.82172405218e-05, No Iterations 4
smoothSolver:  Solving for Uy, Initial residual = 0.00129967074816, Final residual = 0.000113569169304, No Iterations 4
smoothSolver:  Solving for Uz, Initial residual = 0.00557274727369, Final residual = 0.000496289606205, No Iterations 4
GAMG:  Solving for p, Initial residual = 0.00149040866019, Final residual = 6.79553889606e-05, No Iterations 6
time step continuity errors : sum local = 0.00989999801186, global = -4.65219876344e-06, cumulative = 16.9673244519
ExecutionTime = 7.82 s  ClockTime = 7 s

Time = 115

smoothSolver:  Solving for Ux, Initial residual = 0.000370388092944, Final residual = 2.79551425551e-05, No Iterations 4
smoothSolver:  Solving for Uy, Initial residual = 0.00129445316774, Final residual = 0.000113106853858, No Iterations 4
smoothSolver:  Solving for Uz, Initial residual = 0.00557811376249, Final residual = 0.000497166742295, No Iterations 4
GAMG:  Solving for p, Initial residual = 0.00144537437571, Final residual = 5.24042861045e-05, No Iterations 7
time step continuity errors : sum local = 0.00754804477262, global = 4.80354258114e-05, cumulative = 16.9673724873
ExecutionTime = 7.89 s  ClockTime = 7 s

Time = 116

smoothSolver:  Solving for Ux, Initial residual = 0.0003660590077, Final residual = 2.76701230736e-05, No Iterations 4
smoothSolver:  Solving for Uy, Initial residual = 0.0012888086016, Final residual = 0.000112644261535, No Iterations 4
smoothSolver:  Solving for Uz, Initial residual = 0.00558615319974, Final residual = 0.000498119388293, No Iterations 4
GAMG:  Solving for p, Initial residual = 0.00138828026009, Final residual = 5.11341654795e-05, No Iterations 5
time step continuity errors : sum local = 0.00727625156604, global = 8.67512145906e-05, cumulative = 16.9674592386
ExecutionTime = 7.95 s  ClockTime = 8 s

Time = 117

smoothSolver:  Solving for Ux, Initial residual = 0.000363787443748, Final residual = 2.74355299308e-05, No Iterations 4
smoothSolver:  Solving for Uy, Initial residual = 0.00128025572977, Final residual = 0.000112000203153, No Iterations 4
smoothSolver:  Solving for Uz, Initial residual = 0.00558903433137, Final residual = 0.000498932879207, No Iterations 4
GAMG:  Solving for p, Initial residual = 0.00134784150702, Final residual = 5.68163154262e-05, No Iterations 5
time step continuity errors : sum local = 0.0079989490106, global = -1.34934850504e-05, cumulative = 16.9674457451
ExecutionTime = 8.02 s  ClockTime = 8 s

Time = 118

smoothSolver:  Solving for Ux, Initial residual = 0.000361662672582, Final residual = 2.71785794877e-05, No Iterations 4
smoothSolver:  Solving for Uy, Initial residual = 0.00127258215148, Final residual = 0.000111226618466, No Iterations 4
smoothSolver:  Solving for Uz, Initial residual = 0.00559305000216, Final residual = 0.000499693792736, No Iterations 4
GAMG:  Solving for p, Initial residual = 0.00138400598132, Final residual = 6.04615404901e-05, No Iterations 5
time step continuity errors : sum local = 0.00839896903619, global = 2.29183214636e-06, cumulative = 16.9674480369
ExecutionTime = 8.09 s  ClockTime = 8 s

Time = 119

smoothSolver:  Solving for Ux, Initial residual = 0.000360776574163, Final residual = 2.69081202922e-05, No Iterations 4
smoothSolver:  Solving for Uy, Initial residual = 0.00127005267467, Final residual = 0.000111030515606, No Iterations 4
smoothSolver:  Solving for Uz, Initial residual = 0.00560460349385, Final residual = 0.000500848738562, No Iterations 4
GAMG:  Solving for p, Initial residual = 0.00135553622047, Final residual = 6.08977044951e-05, No Iterations 5
time step continuity errors : sum local = 0.00835834668045, global = -6.70493418797e-06, cumulative = 16.967441332
ExecutionTime = 8.16 s  ClockTime = 8 s

Time = 120

smoothSolver:  Solving for Ux, Initial residual = 0.00035637574351, Final residual = 2.66672961382e-05, No Iterations 4
smoothSolver:  Solving for Uy, Initial residual = 0.0012636880993, Final residual = 0.000110428079564, No Iterations 4
smoothSolver:  Solving for Uz, Initial residual = 0.00560928848468, Final residual = 0.000501684407735, No Iterations 4
GAMG:  Solving for p, Initial residual = 0.00135791033869, Final residual = 6.28649386643e-05, No Iterations 5
time step continuity errors : sum local = 0.00853254943578, global = 3.07976037292e-05, cumulative = 16.9674721296
ExecutionTime = 8.22 s  ClockTime = 8 s

Time = 121

smoothSolver:  Solving for Ux, Initial residual = 0.000353800450146, Final residual = 2.64045388924e-05, No Iterations 4
smoothSolver:  Solving for Uy, Initial residual = 0.0012603706639, Final residual = 0.000110120624379, No Iterations 4
smoothSolver:  Solving for Uz, Initial residual = 0.0056185500241, Final residual = 0.000502720594541, No Iterations 4
GAMG:  Solving for p, Initial residual = 0.00134670589231, Final residual = 5.73467884761e-05, No Iterations 5
time step continuity errors : sum local = 0.00769216829442, global = 0.000160729941163, cumulative = 16.9676328595
ExecutionTime = 8.27 s  ClockTime = 8 s

Time = 122

smoothSolver:  Solving for Ux, Initial residual = 0.000350954215046, Final residual = 2.6160809475e-05, No Iterations 4
smoothSolver:  Solving for Uy, Initial residual = 0.00125531532823, Final residual = 0.000109675354135, No Iterations 4
smoothSolver:  Solving for Uz, Initial residual = 0.00562032854089, Final residual = 0.000503209543247, No Iterations 4
GAMG:  Solving for p, Initial residual = 0.0013182464502, Final residual = 5.3196260355e-05, No Iterations 5
time step continuity errors : sum local = 0.00706016287479, global = 0.000120712818357, cumulative = 16.9677535723
ExecutionTime = 8.35 s  ClockTime = 8 s

Time = 123

smoothSolver:  Solving for Ux, Initial residual = 0.000350899321359, Final residual = 2.59716372529e-05, No Iterations 4
smoothSolver:  Solving for Uy, Initial residual = 0.00124845781292, Final residual = 0.000109142215819, No Iterations 4
smoothSolver:  Solving for Uz, Initial residual = 0.00561044147242, Final residual = 0.000502635421013, No Iterations 4
GAMG:  Solving for p, Initial residual = 0.00132336252515, Final residual = 5.23002414156e-05, No Iterations 5
time step continuity errors : sum local = 0.00685964269618, global = 0.000132640082405, cumulative = 16.9678862124
ExecutionTime = 8.4 s  ClockTime = 8 s

Time = 124

smoothSolver:  Solving for Ux, Initial residual = 0.000349323645409, Final residual = 2.57567255533e-05, No Iterations 4
smoothSolver:  Solving for Uy, Initial residual = 0.00124594969885, Final residual = 0.000108863264388, No Iterations 4
smoothSolver:  Solving for Uz, Initial residual = 0.00557964442416, Final residual = 0.000500474468435, No Iterations 4
[...]
smoothSolver:  Solving for Uz, Initial residual = 1.01792587886e-05, Final residual = 5.57642726585e-06, No Iterations 1
GAMG:  Solving for p, Initial residual = 1.84429215484e-06, Final residual = 9.62234722159e-07, No Iterations 1
time step continuity errors : sum local = 9.05553750256e-06, global = -7.24798896234e-09, cumulative = 16.9701076863
ExecutionTime = 155.75 s  ClockTime = 155 s

Time = 2199

smoothSolver:  Solving for Ux, Initial residual = 9.98992058293e-06, Final residual = 9.98992058293e-06, No Iterations 0
smoothSolver:  Solving for Uy, Initial residual = 0.000137327620602, Final residual = 1.25078679442e-05, No Iterations 4
smoothSolver:  Solving for Uz, Initial residual = 1.01684466372e-05, Final residual = 5.57050304359e-06, No Iterations 1
GAMG:  Solving for p, Initial residual = 1.85347827611e-06, Final residual = 7.0600106491e-07, No Iterations 2
time step continuity errors : sum local = 6.64413031888e-06, global = 4.42406147381e-09, cumulative = 16.9701076907
ExecutionTime = 155.82 s  ClockTime = 155 s

Time = 2200

smoothSolver:  Solving for Ux, Initial residual = 9.99665079567e-06, Final residual = 9.99665079567e-06, No Iterations 0
smoothSolver:  Solving for Uy, Initial residual = 0.00013719340725, Final residual = 1.24959516707e-05, No Iterations 4
smoothSolver:  Solving for Uz, Initial residual = 1.01573891999e-05, Final residual = 5.56443139518e-06, No Iterations 1
GAMG:  Solving for p, Initial residual = 1.73933500016e-06, Final residual = 7.60534594355e-07, No Iterations 1
time step continuity errors : sum local = 7.15734729149e-06, global = 2.93624629344e-09, cumulative = 16.9701076936
ExecutionTime = 155.89 s  ClockTime = 155 s

    writing object shearStress
Time = 2201

smoothSolver:  Solving for Ux, Initial residual = 9.9931056039e-06, Final residual = 9.9931056039e-06, No Iterations 0
smoothSolver:  Solving for Uy, Initial residual = 0.000136962648364, Final residual = 1.24754362191e-05, No Iterations 4
smoothSolver:  Solving for Uz, Initial residual = 1.01468903185e-05, Final residual = 5.55868777721e-06, No Iterations 1
GAMG:  Solving for p, Initial residual = 1.75914316663e-06, Final residual = 8.11867784298e-07, No Iterations 1
time step continuity errors : sum local = 7.64043436816e-06, global = -1.87591384044e-09, cumulative = 16.9701076918
ExecutionTime = 155.98 s  ClockTime = 156 s

Time = 2202

smoothSolver:  Solving for Ux, Initial residual = 9.99788678995e-06, Final residual = 9.99788678995e-06, No Iterations 0
smoothSolver:  Solving for Uy, Initial residual = 0.000136780600553, Final residual = 1.24584361902e-05, No Iterations 4
smoothSolver:  Solving for Uz, Initial residual = 1.01361629265e-05, Final residual = 5.55281707683e-06, No Iterations 1
GAMG:  Solving for p, Initial residual = 1.80101574532e-06, Final residual = 8.86913372965e-07, No Iterations 1
time step continuity errors : sum local = 8.34667559239e-06, global = -1.81386257094e-09, cumulative = 16.9701076899
ExecutionTime = 156.05 s  ClockTime = 156 s

Time = 2203

smoothSolver:  Solving for Ux, Initial residual = 9.99563612888e-06, Final residual = 9.99563612888e-06, No Iterations 0
smoothSolver:  Solving for Uy, Initial residual = 0.000136603999615, Final residual = 1.24423093855e-05, No Iterations 4
smoothSolver:  Solving for Uz, Initial residual = 1.01254578292e-05, Final residual = 5.54695184874e-06, No Iterations 1
GAMG:  Solving for p, Initial residual = 1.82986000483e-06, Final residual = 9.5426720752e-07, No Iterations 1
time step continuity errors : sum local = 8.98052889119e-06, global = 4.83552486316e-09, cumulative = 16.9701076948
ExecutionTime = 156.11 s  ClockTime = 156 s

Time = 2204

smoothSolver:  Solving for Ux, Initial residual = 1.00026251218e-05, Final residual = 5.34333258989e-06, No Iterations 1
smoothSolver:  Solving for Uy, Initial residual = 0.000136430185656, Final residual = 1.24266576058e-05, No Iterations 4
smoothSolver:  Solving for Uz, Initial residual = 1.01147074462e-05, Final residual = 5.54106214892e-06, No Iterations 1
GAMG:  Solving for p, Initial residual = 1.84477947658e-06, Final residual = 6.91671878107e-07, No Iterations 2
time step continuity errors : sum local = 6.50926009913e-06, global = 7.82035673447e-09, cumulative = 16.9701077026
ExecutionTime = 156.18 s  ClockTime = 156 s

Time = 2205

smoothSolver:  Solving for Ux, Initial residual = 9.90611408646e-06, Final residual = 9.90611408646e-06, No Iterations 0
smoothSolver:  Solving for Uy, Initial residual = 0.000136295534654, Final residual = 1.24146881406e-05, No Iterations 4
smoothSolver:  Solving for Uz, Initial residual = 1.0103691239e-05, Final residual = 5.53501247122e-06, No Iterations 1
GAMG:  Solving for p, Initial residual = 1.72400409424e-06, Final residual = 7.58298513264e-07, No Iterations 1
time step continuity errors : sum local = 7.13628083158e-06, global = 6.99787898447e-09, cumulative = 16.9701077096
ExecutionTime = 156.25 s  ClockTime = 156 s

Time = 2206

smoothSolver:  Solving for Ux, Initial residual = 9.95369043028e-06, Final residual = 9.95369043028e-06, No Iterations 0
smoothSolver:  Solving for Uy, Initial residual = 0.000136068480594, Final residual = 1.23944967864e-05, No Iterations 4
smoothSolver:  Solving for Uz, Initial residual = 1.00932119846e-05, Final residual = 5.52927921865e-06, No Iterations 1
GAMG:  Solving for p, Initial residual = 1.74562077308e-06, Final residual = 8.05262154384e-07, No Iterations 1
time step continuity errors : sum local = 7.57824497918e-06, global = 4.48428492258e-09, cumulative = 16.9701077141
ExecutionTime = 156.31 s  ClockTime = 156 s

Time = 2207

smoothSolver:  Solving for Ux, Initial residual = 9.96606390493e-06, Final residual = 9.96606390493e-06, No Iterations 0
smoothSolver:  Solving for Uy, Initial residual = 0.000135888256185, Final residual = 1.23776713086e-05, No Iterations 4
smoothSolver:  Solving for Uz, Initial residual = 1.0082529941e-05, Final residual = 5.52343274687e-06, No Iterations 1
GAMG:  Solving for p, Initial residual = 1.78774262399e-06, Final residual = 8.78935850636e-07, No Iterations 1
time step continuity errors : sum local = 8.27157327078e-06, global = 4.89857238642e-09, cumulative = 16.970107719
ExecutionTime = 156.38 s  ClockTime = 156 s

Time = 2208

smoothSolver:  Solving for Ux, Initial residual = 9.97411572927e-06, Final residual = 9.97411572927e-06, No Iterations 0
smoothSolver:  Solving for Uy, Initial residual = 0.00013571264254, Final residual = 1.23616362332e-05, No Iterations 4
smoothSolver:  Solving for Uz, Initial residual = 1.00718794966e-05, Final residual = 5.51759671655e-06, No Iterations 1
GAMG:  Solving for p, Initial residual = 1.81558986584e-06, Final residual = 9.47182362192e-07, No Iterations 1
time step continuity errors : sum local = 8.9138253804e-06, global = 5.04219738164e-09, cumulative = 16.970107724
ExecutionTime = 156.45 s  ClockTime = 156 s

Time = 2209

smoothSolver:  Solving for Ux, Initial residual = 9.98156339539e-06, Final residual = 9.98156339539e-06, No Iterations 0
smoothSolver:  Solving for Uy, Initial residual = 0.000135541327413, Final residual = 1.23462095432e-05, No Iterations 4
smoothSolver:  Solving for Uz, Initial residual = 1.00611658543e-05, Final residual = 5.51172616798e-06, No Iterations 1
GAMG:  Solving for p, Initial residual = 1.82539068405e-06, Final residual = 9.85308919575e-07, No Iterations 1
time step continuity errors : sum local = 9.27262097852e-06, global = 4.92020287971e-09, cumulative = 16.9701077289
ExecutionTime = 156.52 s  ClockTime = 156 s

Time = 2210

smoothSolver:  Solving for Ux, Initial residual = 9.97958398406e-06, Final residual = 9.97958398406e-06, No Iterations 0
smoothSolver:  Solving for Uy, Initial residual = 0.000135368485831, Final residual = 1.23307295229e-05, No Iterations 4
smoothSolver:  Solving for Uz, Initial residual = 1.00504090367e-05, Final residual = 5.50583228036e-06, No Iterations 1
GAMG:  Solving for p, Initial residual = 1.82458323876e-06, Final residual = 9.92589486784e-07, No Iterations 1
time step continuity errors : sum local = 9.34112838966e-06, global = 4.48929362167e-09, cumulative = 16.9701077334
ExecutionTime = 156.58 s  ClockTime = 156 s

Time = 2211

smoothSolver:  Solving for Ux, Initial residual = 9.97824971255e-06, Final residual = 9.97824971255e-06, No Iterations 0
smoothSolver:  Solving for Uy, Initial residual = 0.000135193766966, Final residual = 1.23150292546e-05, No Iterations 4
smoothSolver:  Solving for Uz, Initial residual = 1.00396286991e-05, Final residual = 5.49992595045e-06, No Iterations 1
GAMG:  Solving for p, Initial residual = 1.82179101362e-06, Final residual = 9.85226137719e-07, No Iterations 1
time step continuity errors : sum local = 9.2718237249e-06, global = 3.73741302445e-09, cumulative = 16.9701077372
ExecutionTime = 156.65 s  ClockTime = 156 s

Time = 2212

smoothSolver:  Solving for Ux, Initial residual = 9.98496074909e-06, Final residual = 9.98496074909e-06, No Iterations 0
smoothSolver:  Solving for Uy, Initial residual = 0.000135017207976, Final residual = 1.22990743419e-05, No Iterations 4
smoothSolver:  Solving for Uz, Initial residual = 1.00288699034e-05, Final residual = 5.4940308932e-06, No Iterations 1
GAMG:  Solving for p, Initial residual = 1.82107064651e-06, Final residual = 9.74325582345e-07, No Iterations 1
time step continuity errors : sum local = 9.1692310903e-06, global = 2.61814431052e-09, cumulative = 16.9701077398
ExecutionTime = 156.71 s  ClockTime = 156 s

Time = 2213

smoothSolver:  Solving for Ux, Initial residual = 9.98593528135e-06, Final residual = 9.98593528135e-06, No Iterations 0
smoothSolver:  Solving for Uy, Initial residual = 0.00013483959774, Final residual = 1.22829591976e-05, No Iterations 4
smoothSolver:  Solving for Uz, Initial residual = 1.00181579518e-05, Final residual = 5.48816118142e-06, No Iterations 1
GAMG:  Solving for p, Initial residual = 1.82262484907e-06, Final residual = 9.63968622714e-07, No Iterations 1
time step continuity errors : sum local = 9.0717543226e-06, global = 1.07312489408e-09, cumulative = 16.9701077409
ExecutionTime = 156.78 s  ClockTime = 156 s

Time = 2214

smoothSolver:  Solving for Ux, Initial residual = 9.98359291655e-06, Final residual = 9.98359291655e-06, No Iterations 0
smoothSolver:  Solving for Uy, Initial residual = 0.000134661309049, Final residual = 1.22667603858e-05, No Iterations 4
smoothSolver:  Solving for Uz, Initial residual = 1.00075023357e-05, Final residual = 5.48232157059e-06, No Iterations 1
GAMG:  Solving for p, Initial residual = 1.82550936699e-06, Final residual = 9.55310021078e-07, No Iterations 1
time step continuity errors : sum local = 8.99026075226e-06, global = -9.52500224169e-10, cumulative = 16.9701077399
ExecutionTime = 156.84 s  ClockTime = 156 s

Time = 2215

smoothSolver:  Solving for Ux, Initial residual = 9.98579135028e-06, Final residual = 9.98579135028e-06, No Iterations 0
smoothSolver:  Solving for Uy, Initial residual = 0.000134482834653, Final residual = 1.22505524132e-05, No Iterations 4
smoothSolver:  Solving for Uz, Initial residual = 9.99689428091e-06, Final residual = 9.99689428091e-06, No Iterations 0
GAMG:  Solving for p, Initial residual = 3.78314601296e-05, Final residual = 1.51863642552e-06, No Iterations 10
time step continuity errors : sum local = 1.42916268514e-05, global = 4.94002748884e-08, cumulative = 16.9701077893
ExecutionTime = 156.92 s  ClockTime = 157 s

Time = 2216

smoothSolver:  Solving for Ux, Initial residual = 9.98416749804e-06, Final residual = 9.98416749804e-06, No Iterations 0
smoothSolver:  Solving for Uy, Initial residual = 0.000104849683147, Final residual = 9.49273476851e-06, No Iterations 4
smoothSolver:  Solving for Uz, Initial residual = 1.02505969981e-05, Final residual = 5.61140422337e-06, No Iterations 1
GAMG:  Solving for p, Initial residual = 2.59536749637e-05, Final residual = 7.98357383489e-07, No Iterations 10
time step continuity errors : sum local = 7.51285744547e-06, global = -5.55841397658e-08, cumulative = 16.9701077337
ExecutionTime = 156.99 s  ClockTime = 157 s

Time = 2217

smoothSolver:  Solving for Ux, Initial residual = 9.98733418501e-06, Final residual = 9.98733418501e-06, No Iterations 0
smoothSolver:  Solving for Uy, Initial residual = 0.000107514224324, Final residual = 9.77681460569e-06, No Iterations 4
smoothSolver:  Solving for Uz, Initial residual = 1.02114291712e-05, Final residual = 5.59103965986e-06, No Iterations 1
GAMG:  Solving for p, Initial residual = 2.00017427512e-05, Final residual = 8.4588887252e-07, No Iterations 8
time step continuity errors : sum local = 7.96012076566e-06, global = -2.8942018596e-08, cumulative = 16.9701077048
ExecutionTime = 157.07 s  ClockTime = 157 s

Time = 2218

smoothSolver:  Solving for Ux, Initial residual = 9.9857665108e-06, Final residual = 9.9857665108e-06, No Iterations 0
smoothSolver:  Solving for Uy, Initial residual = 0.000114768645893, Final residual = 1.04368594132e-05, No Iterations 4
smoothSolver:  Solving for Uz, Initial residual = 1.01160028754e-05, Final residual = 5.54025936314e-06, No Iterations 1
GAMG:  Solving for p, Initial residual = 2.1119768382e-05, Final residual = 9.62351486919e-07, No Iterations 8
time step continuity errors : sum local = 9.05615307627e-06, global = -3.22779983581e-08, cumulative = 16.9701076725
ExecutionTime = 157.14 s  ClockTime = 157 s

Time = 2219

smoothSolver:  Solving for Ux, Initial residual = 9.98600975061e-06, Final residual = 9.98600975061e-06, No Iterations 0
smoothSolver:  Solving for Uy, Initial residual = 0.000125445640718, Final residual = 1.14010606307e-05, No Iterations 4
smoothSolver:  Solving for Uz, Initial residual = 1.00124937013e-05, Final residual = 5.48499921759e-06, No Iterations 1
GAMG:  Solving for p, Initial residual = 2.07044791347e-05, Final residual = 9.1108942478e-07, No Iterations 7
time step continuity errors : sum local = 8.57384934608e-06, global = -3.31746319438e-08, cumulative = 16.9701076393
ExecutionTime = 157.21 s  ClockTime = 157 s

Time = 2220

smoothSolver:  Solving for Ux, Initial residual = 9.99319850795e-06, Final residual = 9.99319850795e-06, No Iterations 0
smoothSolver:  Solving for Uy, Initial residual = 0.000132948237277, Final residual = 1.20840767751e-05, No Iterations 4
smoothSolver:  Solving for Uz, Initial residual = 9.93746277651e-06, Final residual = 9.93746277651e-06, No Iterations 0
GAMG:  Solving for p, Initial residual = 3.47208848937e-05, Final residual = 1.47956325686e-06, No Iterations 10
time step continuity errors : sum local = 1.39236753135e-05, global = 3.55901529512e-08, cumulative = 16.9701076749
ExecutionTime = 157.29 s  ClockTime = 157 s

Time = 2221

smoothSolver:  Solving for Ux, Initial residual = 9.99445494981e-06, Final residual = 9.99445494981e-06, No Iterations 0
smoothSolver:  Solving for Uy, Initial residual = 0.000107999895395, Final residual = 9.77184962713e-06, No Iterations 4
smoothSolver:  Solving for Uz, Initial residual = 1.01575815818e-05, Final residual = 5.56180101109e-06, No Iterations 1
GAMG:  Solving for p, Initial residual = 2.19165213576e-05, Final residual = 8.74739343227e-07, No Iterations 10
time step continuity errors : sum local = 8.23163337066e-06, global = -1.64066548491e-08, cumulative = 16.9701076585
ExecutionTime = 157.36 s  ClockTime = 157 s

Time = 2222

smoothSolver:  Solving for Ux, Initial residual = 9.99699398532e-06, Final residual = 9.99699398532e-06, No Iterations 0
smoothSolver:  Solving for Uy, Initial residual = 0.000110532069374, Final residual = 1.0065712857e-05, No Iterations 4
smoothSolver:  Solving for Uz, Initial residual = 1.01167365965e-05, Final residual = 5.54033386471e-06, No Iterations 1
GAMG:  Solving for p, Initial residual = 1.68797778217e-05, Final residual = 9.61403716022e-07, No Iterations 7
time step continuity errors : sum local = 9.04719449499e-06, global = -1.20415615311e-07, cumulative = 16.9701075381
ExecutionTime = 157.43 s  ClockTime = 157 s

Time = 2223

smoothSolver:  Solving for Ux, Initial residual = 9.99384445241e-06, Final residual = 9.99384445241e-06, No Iterations 0
smoothSolver:  Solving for Uy, Initial residual = 0.000116966668081, Final residual = 1.06459400591e-05, No Iterations 4
smoothSolver:  Solving for Uz, Initial residual = 1.00337221407e-05, Final residual = 5.4959405747e-06, No Iterations 1
GAMG:  Solving for p, Initial residual = 1.70122516143e-05, Final residual = 9.85363363907e-07, No Iterations 7
time step continuity errors : sum local = 9.27265509938e-06, global = -3.16469891382e-08, cumulative = 16.9701075065
ExecutionTime = 157.5 s  ClockTime = 157 s

Time = 2224

smoothSolver:  Solving for Ux, Initial residual = 9.99342209933e-06, Final residual = 9.99342209933e-06, No Iterations 0
smoothSolver:  Solving for Uy, Initial residual = 0.000126286784869, Final residual = 1.1483425934e-05, No Iterations 4
smoothSolver:  Solving for Uz, Initial residual = 9.94509438356e-06, Final residual = 9.94509438356e-06, No Iterations 0
GAMG:  Solving for p, Initial residual = 2.98155284295e-05, Final residual = 1.31704181322e-06, No Iterations 10
time step continuity errors : sum local = 1.23940558317e-05, global = 4.13462773268e-08, cumulative = 16.9701075478
ExecutionTime = 157.58 s  ClockTime = 157 s

Time = 2225

smoothSolver:  Solving for Ux, Initial residual = 9.99353105559e-06, Final residual = 9.99353105559e-06, No Iterations 0
smoothSolver:  Solving for Uy, Initial residual = 0.000102753075297, Final residual = 9.30586720242e-06, No Iterations 4
smoothSolver:  Solving for Uz, Initial residual = 1.0146206925e-05, Final residual = 5.5554030959e-06, No Iterations 1
GAMG:  Solving for p, Initial residual = 1.91537736568e-05, Final residual = 8.813272055e-07, No Iterations 10
time step continuity errors : sum local = 8.29352552468e-06, global = -8.83623761052e-09, cumulative = 16.970107539
ExecutionTime = 157.66 s  ClockTime = 157 s

Time = 2226

smoothSolver:  Solving for Ux, Initial residual = 9.99500566209e-06, Final residual = 9.99500566209e-06, No Iterations 0
smoothSolver:  Solving for Uy, Initial residual = 0.000108714791922, Final residual = 9.89657004657e-06, No Iterations 4
smoothSolver:  Solving for Uz, Initial residual = 1.00882196139e-05, Final residual = 5.52475442472e-06, No Iterations 1
GAMG:  Solving for p, Initial residual = 1.62153627975e-05, Final residual = 8.48590296144e-07, No Iterations 8
time step continuity errors : sum local = 7.98551133394e-06, global = -2.94481719506e-08, cumulative = 16.9701075095
ExecutionTime = 157.74 s  ClockTime = 157 s

Time = 2227

smoothSolver:  Solving for Ux, Initial residual = 1.0000171033e-05, Final residual = 5.33870893677e-06, No Iterations 1
smoothSolver:  Solving for Uy, Initial residual = 0.000116650332594, Final residual = 1.06142580095e-05, No Iterations 4
smoothSolver:  Solving for Uz, Initial residual = 9.99509812813e-06, Final residual = 9.99509812813e-06, No Iterations 0
GAMG:  Solving for p, Initial residual = 2.56227865517e-05, Final residual = 1.12335010151e-06, No Iterations 10
time step continuity errors : sum local = 1.0571194859e-05, global = 4.88128032325e-08, cumulative = 16.9701075583
ExecutionTime = 157.83 s  ClockTime = 157 s

Time = 2228

smoothSolver:  Solving for Ux, Initial residual = 9.90452796434e-06, Final residual = 9.90452796434e-06, No Iterations 0
smoothSolver:  Solving for Uy, Initial residual = 9.58162385944e-05, Final residual = 8.6821845283e-06, No Iterations 4
smoothSolver:  Solving for Uz, Initial residual = 1.01686117463e-05, Final residual = 5.5671710525e-06, No Iterations 1
GAMG:  Solving for p, Initial residual = 1.74859531864e-05, Final residual = 8.47738935218e-07, No Iterations 10
time step continuity errors : sum local = 7.97730151485e-06, global = -1.79724391222e-08, cumulative = 16.9701075404
ExecutionTime = 157.92 s  ClockTime = 158 s


SIMPLE solution converged in 2228 iterations

    writing object shearStress
End

Finalising parallel run
