/*---------------------------------------------------------------------------*\
  =========                 |
  \\      /  F ield         | OpenFOAM: The Open Source CFD Toolbox
   \\    /   O peration     | Website:  https://openfoam.org
    \\  /    A nd           | Version:  9
     \\/     M anipulation  |
\*---------------------------------------------------------------------------*/
Build  : 9-b456138dc4bc
Exec   : simpleFoam -parallel
Date   : Apr 12 2022
Time   : 12:19:10
Host   : "KORIN-LAB"
PID    : 2754
I/O    : uncollated
Case   : /home/colin/OpenFOAM/colin-9/run/wsl/wedge_needle/45_temp/45_needle_layer
nProcs : 6
Slaves : 
5
(
"KORIN-LAB.2755"
"KORIN-LAB.2756"
"KORIN-LAB.2757"
"KORIN-LAB.2758"
"KORIN-LAB.2759"
)

Pstream initialised with:
    floatTransfer      : 0
    nProcsSimpleSum    : 0
    commsType          : nonBlocking
    polling iterations : 0
sigFpe : Enabling floating point exception trapping (FOAM_SIGFPE).
fileModificationChecking : Monitoring run-time modified files using timeStampMaster (fileModificationSkew 10)
allowSystemOperations : Allowing user-supplied system call operations

// * * * * * * * * * * * * * * * * * * * * * * * * * * * * * * * * * * * * * //
Create time

Create mesh for time = 0


SIMPLE: Convergence criteria found
        p: tolerance 0.001
        U: tolerance 0.0001
        "(k|epsilon|omega|f|v2)": tolerance 0.0001

Reading field p

Reading field U

Reading/calculating face flux field phi

Selecting incompressible transport model powerLaw
Selecting turbulence model type laminar
Selecting laminar stress model Stokes
No MRF models present

No fvModels present
No fvConstraints present

Starting time loop

wallShearStress wallShearStress:
    processing all wall patches

Time = 1

smoothSolver:  Solving for Ux, Initial residual = 0.696353155764, Final residual = 0.0675459319425, No Iterations 2
smoothSolver:  Solving for Uy, Initial residual = 0.999999999998, Final residual = 0.0632641193738, No Iterations 2
smoothSolver:  Solving for Uz, Initial residual = 1, Final residual = 0.0956769044368, No Iterations 2
GAMG:  Solving for p, Initial residual = 0.999999999986, Final residual = 0.0264200245303, No Iterations 22
time step continuity errors : sum local = 0.0143980586488, global = -0.000112696697302, cumulative = -0.000112696697302
ExecutionTime = 0.11 s  ClockTime = 0 s

Time = 2

smoothSolver:  Solving for Ux, Initial residual = 0.502662613407, Final residual = 0.0293754974727, No Iterations 4
smoothSolver:  Solving for Uy, Initial residual = 0.916546080476, Final residual = 0.0787828679415, No Iterations 4
smoothSolver:  Solving for Uz, Initial residual = 0.824140725662, Final residual = 0.0694525136417, No Iterations 4
GAMG:  Solving for p, Initial residual = 0.00593973515752, Final residual = 0.000186189163323, No Iterations 8
time step continuity errors : sum local = 18.7467801675, global = -0.0227925946429, cumulative = -0.0229052913402
ExecutionTime = 0.16 s  ClockTime = 0 s

Time = 3

smoothSolver:  Solving for Ux, Initial residual = 0.629810254682, Final residual = 0.0379624679477, No Iterations 2
smoothSolver:  Solving for Uy, Initial residual = 0.0807052694628, Final residual = 0.00636981122116, No Iterations 4
smoothSolver:  Solving for Uz, Initial residual = 0.0575895942749, Final residual = 0.00474214858588, No Iterations 4
GAMG:  Solving for p, Initial residual = 0.0111481997688, Final residual = 0.000402961227736, No Iterations 10
time step continuity errors : sum local = 10.5568260568, global = -0.0184950388064, cumulative = -0.0414003301467
ExecutionTime = 0.22 s  ClockTime = 0 s

Time = 4

smoothSolver:  Solving for Ux, Initial residual = 0.171944095903, Final residual = 0.00939454833464, No Iterations 3
smoothSolver:  Solving for Uy, Initial residual = 0.0473885213553, Final residual = 0.0039561292548, No Iterations 4
smoothSolver:  Solving for Uz, Initial residual = 0.0123361445605, Final residual = 0.00106521326126, No Iterations 3
GAMG:  Solving for p, Initial residual = 0.320765499122, Final residual = 0.00856401577521, No Iterations 8
time step continuity errors : sum local = 14.5240243545, global = 0.01670152707, cumulative = -0.0246988030766
ExecutionTime = 0.27 s  ClockTime = 0 s

Time = 5

smoothSolver:  Solving for Ux, Initial residual = 0.0207422460046, Final residual = 0.00127652374028, No Iterations 3
smoothSolver:  Solving for Uy, Initial residual = 0.0151484361168, Final residual = 0.0010964709772, No Iterations 4
smoothSolver:  Solving for Uz, Initial residual = 0.0574389129804, Final residual = 0.00452690871621, No Iterations 4
GAMG:  Solving for p, Initial residual = 0.026465897545, Final residual = 0.000852195389167, No Iterations 7
time step continuity errors : sum local = 8.33654818378, global = -0.0268605435301, cumulative = -0.0515593466067
ExecutionTime = 0.31 s  ClockTime = 0 s

Time = 6

smoothSolver:  Solving for Ux, Initial residual = 0.00765754275583, Final residual = 0.000660527130144, No Iterations 2
smoothSolver:  Solving for Uy, Initial residual = 0.144638013785, Final residual = 0.012011633456, No Iterations 4
smoothSolver:  Solving for Uz, Initial residual = 0.223392087197, Final residual = 0.0187081622147, No Iterations 4
GAMG:  Solving for p, Initial residual = 0.0224274344339, Final residual = 0.000715872547217, No Iterations 8
time step continuity errors : sum local = 4.33111148901, global = -0.0157199660228, cumulative = -0.0672793126296
ExecutionTime = 0.38 s  ClockTime = 1 s

Time = 7

smoothSolver:  Solving for Ux, Initial residual = 0.0103007170621, Final residual = 0.000591869646457, No Iterations 3
smoothSolver:  Solving for Uy, Initial residual = 0.114576662696, Final residual = 0.00974909450976, No Iterations 4
smoothSolver:  Solving for Uz, Initial residual = 0.0759268857596, Final residual = 0.00592372272322, No Iterations 4
GAMG:  Solving for p, Initial residual = 0.100112820466, Final residual = 0.00410821379416, No Iterations 6
time step continuity errors : sum local = 9.55245828184, global = 0.0986178630167, cumulative = 0.0313385503871
ExecutionTime = 0.44 s  ClockTime = 1 s

Time = 8

smoothSolver:  Solving for Ux, Initial residual = 0.010593069555, Final residual = 0.000744707636968, No Iterations 3
smoothSolver:  Solving for Uy, Initial residual = 0.0335209556971, Final residual = 0.00279667574099, No Iterations 4
smoothSolver:  Solving for Uz, Initial residual = 0.0380062684038, Final residual = 0.00267152271099, No Iterations 4
GAMG:  Solving for p, Initial residual = 0.239512774309, Final residual = 0.00879033344296, No Iterations 7
time step continuity errors : sum local = 6.01756110932, global = -0.00884897149871, cumulative = 0.0224895788884
ExecutionTime = 0.5 s  ClockTime = 1 s

Time = 9

smoothSolver:  Solving for Ux, Initial residual = 0.00958193504474, Final residual = 0.000831775670446, No Iterations 3
smoothSolver:  Solving for Uy, Initial residual = 0.0354653074833, Final residual = 0.00284092203498, No Iterations 4
smoothSolver:  Solving for Uz, Initial residual = 0.0929630637601, Final residual = 0.00767178928173, No Iterations 4
GAMG:  Solving for p, Initial residual = 0.0266837372034, Final residual = 0.000834755486993, No Iterations 7
time step continuity errors : sum local = 1.71712661227, global = 0.018333450615, cumulative = 0.0408230295034
ExecutionTime = 0.56 s  ClockTime = 1 s

Time = 10

smoothSolver:  Solving for Ux, Initial residual = 0.00991124118162, Final residual = 0.000795481645266, No Iterations 3
smoothSolver:  Solving for Uy, Initial residual = 0.199207608787, Final residual = 0.0169357659006, No Iterations 4
smoothSolver:  Solving for Uz, Initial residual = 0.0559910727896, Final residual = 0.00476861293646, No Iterations 4
GAMG:  Solving for p, Initial residual = 0.0245597612246, Final residual = 0.00107216045081, No Iterations 7
time step continuity errors : sum local = 1.97790184419, global = 0.00297023048146, cumulative = 0.0437932599849
ExecutionTime = 0.62 s  ClockTime = 1 s

Time = 11

smoothSolver:  Solving for Ux, Initial residual = 0.0074389725298, Final residual = 0.000522554694018, No Iterations 3
smoothSolver:  Solving for Uy, Initial residual = 0.106874428805, Final residual = 0.00915556390988, No Iterations 4
smoothSolver:  Solving for Uz, Initial residual = 0.0226761924742, Final residual = 0.00186714241166, No Iterations 4
GAMG:  Solving for p, Initial residual = 0.06525585889, Final residual = 0.00196373850518, No Iterations 7
time step continuity errors : sum local = 1.69732105785, global = 0.000564532272803, cumulative = 0.0443577922577
ExecutionTime = 0.68 s  ClockTime = 1 s

Time = 12

smoothSolver:  Solving for Ux, Initial residual = 0.00424831589447, Final residual = 0.000319938882036, No Iterations 3
smoothSolver:  Solving for Uy, Initial residual = 0.0323849027249, Final residual = 0.00264019297262, No Iterations 4
smoothSolver:  Solving for Uz, Initial residual = 0.0117461096836, Final residual = 0.000907779053569, No Iterations 4
GAMG:  Solving for p, Initial residual = 0.322773929954, Final residual = 0.00827145672715, No Iterations 7
time step continuity errors : sum local = 1.04874297928, global = 0.00159759929988, cumulative = 0.0459553915575
ExecutionTime = 0.74 s  ClockTime = 1 s

Time = 13

smoothSolver:  Solving for Ux, Initial residual = 0.00228846680237, Final residual = 0.000213248820789, No Iterations 3
smoothSolver:  Solving for Uy, Initial residual = 0.0333889687057, Final residual = 0.00259724228477, No Iterations 4
smoothSolver:  Solving for Uz, Initial residual = 0.00910353963751, Final residual = 0.000666707573027, No Iterations 4
GAMG:  Solving for p, Initial residual = 0.0695634265458, Final residual = 0.00177155454188, No Iterations 7
time step continuity errors : sum local = 0.52556000171, global = -0.000266894746992, cumulative = 0.0456884968105
ExecutionTime = 0.8 s  ClockTime = 1 s

Time = 14

smoothSolver:  Solving for Ux, Initial residual = 0.00209173557406, Final residual = 0.000122970992837, No Iterations 4
smoothSolver:  Solving for Uy, Initial residual = 0.113888826192, Final residual = 0.00962074452377, No Iterations 4
smoothSolver:  Solving for Uz, Initial residual = 0.0108026873999, Final residual = 0.000859841023177, No Iterations 4
GAMG:  Solving for p, Initial residual = 0.0471336736861, Final residual = 0.00141565615754, No Iterations 6
time step continuity errors : sum local = 0.398314503696, global = -0.00117093471583, cumulative = 0.0445175620947
ExecutionTime = 0.86 s  ClockTime = 1 s

Time = 15

smoothSolver:  Solving for Ux, Initial residual = 0.0023514671936, Final residual = 0.000139406400288, No Iterations 4
smoothSolver:  Solving for Uy, Initial residual = 0.202112276211, Final residual = 0.0171667895286, No Iterations 4
smoothSolver:  Solving for Uz, Initial residual = 0.0107602589302, Final residual = 0.000877156405621, No Iterations 4
GAMG:  Solving for p, Initial residual = 0.0841772438681, Final residual = 0.00398321299624, No Iterations 5
time step continuity errors : sum local = 0.638310601728, global = -0.000762253582741, cumulative = 0.043755308512
ExecutionTime = 0.92 s  ClockTime = 1 s

Time = 16

smoothSolver:  Solving for Ux, Initial residual = 0.0023683181093, Final residual = 0.000148598864116, No Iterations 4
smoothSolver:  Solving for Uy, Initial residual = 0.082266611249, Final residual = 0.00683961448397, No Iterations 4
smoothSolver:  Solving for Uz, Initial residual = 0.00949750867929, Final residual = 0.000777134503197, No Iterations 4
GAMG:  Solving for p, Initial residual = 0.17708295555, Final residual = 0.00608810035421, No Iterations 6
time step continuity errors : sum local = 0.364852298833, global = -0.000137598943649, cumulative = 0.0436177095683
ExecutionTime = 0.98 s  ClockTime = 1 s

Time = 17

smoothSolver:  Solving for Ux, Initial residual = 0.00228525447885, Final residual = 0.000152299140324, No Iterations 4
smoothSolver:  Solving for Uy, Initial residual = 0.073696546703, Final residual = 0.00576747336569, No Iterations 4
smoothSolver:  Solving for Uz, Initial residual = 0.00843206288518, Final residual = 0.000700113047156, No Iterations 4
GAMG:  Solving for p, Initial residual = 0.0549416815812, Final residual = 0.0025299367453, No Iterations 7
time step continuity errors : sum local = 0.33532880249, global = -0.000678360989828, cumulative = 0.0429393485785
ExecutionTime = 1.04 s  ClockTime = 1 s

Time = 18

smoothSolver:  Solving for Ux, Initial residual = 0.00215421832853, Final residual = 0.000147289933755, No Iterations 4
smoothSolver:  Solving for Uy, Initial residual = 0.105509081205, Final residual = 0.00830578796955, No Iterations 4
smoothSolver:  Solving for Uz, Initial residual = 0.00695404988538, Final residual = 0.000575361611559, No Iterations 4
GAMG:  Solving for p, Initial residual = 0.0364086755439, Final residual = 0.00119738180186, No Iterations 6
time step continuity errors : sum local = 0.170523679555, global = 0.00138244930033, cumulative = 0.0443217978788
ExecutionTime = 1.1 s  ClockTime = 1 s

Time = 19

smoothSolver:  Solving for Ux, Initial residual = 0.00198993765504, Final residual = 0.000139761219358, No Iterations 4
smoothSolver:  Solving for Uy, Initial residual = 0.0604711791514, Final residual = 0.00461812520872, No Iterations 4
smoothSolver:  Solving for Uz, Initial residual = 0.00552792924455, Final residual = 0.00045233678908, No Iterations 4
GAMG:  Solving for p, Initial residual = 0.0372140619184, Final residual = 0.000955151453813, No Iterations 7
time step continuity errors : sum local = 0.125285140226, global = 0.000147979082168, cumulative = 0.044469776961
ExecutionTime = 1.16 s  ClockTime = 1 s

Time = 20

smoothSolver:  Solving for Ux, Initial residual = 0.00184721625638, Final residual = 0.000133370307203, No Iterations 4
smoothSolver:  Solving for Uy, Initial residual = 0.0396055620901, Final residual = 0.00299924900079, No Iterations 4
smoothSolver:  Solving for Uz, Initial residual = 0.0050759506472, Final residual = 0.000421584852428, No Iterations 4
GAMG:  Solving for p, Initial residual = 0.0406564796121, Final residual = 0.00168403007164, No Iterations 5
time step continuity errors : sum local = 0.172778786407, global = 0.000421607151963, cumulative = 0.044891384113
ExecutionTime = 1.22 s  ClockTime = 1 s

Time = 21

smoothSolver:  Solving for Ux, Initial residual = 0.00173800163734, Final residual = 0.000130050994848, No Iterations 4
smoothSolver:  Solving for Uy, Initial residual = 0.038083668749, Final residual = 0.00293352346889, No Iterations 4
smoothSolver:  Solving for Uz, Initial residual = 0.00492070410085, Final residual = 0.000415041537376, No Iterations 4
GAMG:  Solving for p, Initial residual = 0.0398512891956, Final residual = 0.00129829164957, No Iterations 5
time step continuity errors : sum local = 0.104598991176, global = 0.000259860860351, cumulative = 0.0451512449733
ExecutionTime = 1.28 s  ClockTime = 1 s

Time = 22

smoothSolver:  Solving for Ux, Initial residual = 0.0017203617856, Final residual = 0.000130665493255, No Iterations 4
smoothSolver:  Solving for Uy, Initial residual = 0.0408559397656, Final residual = 0.00326535715013, No Iterations 4
smoothSolver:  Solving for Uz, Initial residual = 0.00455863104625, Final residual = 0.000387673591481, No Iterations 4
GAMG:  Solving for p, Initial residual = 0.0355248205813, Final residual = 0.00138554365646, No Iterations 5
time step continuity errors : sum local = 0.0950671649189, global = 0.00032796722481, cumulative = 0.0454792121981
ExecutionTime = 1.34 s  ClockTime = 1 s

Time = 23

smoothSolver:  Solving for Ux, Initial residual = 0.00174960054627, Final residual = 0.000133480107433, No Iterations 4
smoothSolver:  Solving for Uy, Initial residual = 0.036521775633, Final residual = 0.00285088903367, No Iterations 4
smoothSolver:  Solving for Uz, Initial residual = 0.0041224950994, Final residual = 0.000351528083112, No Iterations 4
GAMG:  Solving for p, Initial residual = 0.031146417328, Final residual = 0.00138333249988, No Iterations 4
time step continuity errors : sum local = 0.0921719388334, global = -0.000354435491302, cumulative = 0.0451247767068
ExecutionTime = 1.4 s  ClockTime = 2 s

Time = 24

smoothSolver:  Solving for Ux, Initial residual = 0.00176122282411, Final residual = 0.000135429452623, No Iterations 4
smoothSolver:  Solving for Uy, Initial residual = 0.0296084271888, Final residual = 0.00217174108246, No Iterations 4
smoothSolver:  Solving for Uz, Initial residual = 0.003583833409, Final residual = 0.000303422617952, No Iterations 4
GAMG:  Solving for p, Initial residual = 0.0291700918793, Final residual = 0.00140229898388, No Iterations 6
time step continuity errors : sum local = 0.0928113229368, global = -9.414727217e-05, cumulative = 0.0450306294346
ExecutionTime = 1.46 s  ClockTime = 2 s

Time = 25

smoothSolver:  Solving for Ux, Initial residual = 0.00176848564899, Final residual = 0.000137209005106, No Iterations 4
smoothSolver:  Solving for Uy, Initial residual = 0.0223939912778, Final residual = 0.00151988679065, No Iterations 4
smoothSolver:  Solving for Uz, Initial residual = 0.00318480602816, Final residual = 0.000266590121397, No Iterations 4
GAMG:  Solving for p, Initial residual = 0.0248732804672, Final residual = 0.00106261144988, No Iterations 6
time step continuity errors : sum local = 0.074088503114, global = -0.000273688832781, cumulative = 0.0447569406019
ExecutionTime = 1.5 s  ClockTime = 2 s

Time = 26

smoothSolver:  Solving for Ux, Initial residual = 0.00175452024351, Final residual = 0.000137338172227, No Iterations 4
smoothSolver:  Solving for Uy, Initial residual = 0.0186593502218, Final residual = 0.00119120078875, No Iterations 4
smoothSolver:  Solving for Uz, Initial residual = 0.00301510168277, Final residual = 0.000253836181166, No Iterations 4
GAMG:  Solving for p, Initial residual = 0.0206426725896, Final residual = 0.000864860117425, No Iterations 5
time step continuity errors : sum local = 0.0613495809012, global = -0.000270464012316, cumulative = 0.0444864765895
ExecutionTime = 1.57 s  ClockTime = 2 s

Time = 27

smoothSolver:  Solving for Ux, Initial residual = 0.00174068560308, Final residual = 0.000137022808794, No Iterations 4
smoothSolver:  Solving for Uy, Initial residual = 0.0215489245703, Final residual = 0.00158086682294, No Iterations 4
smoothSolver:  Solving for Uz, Initial residual = 0.00311046239797, Final residual = 0.000266524633929, No Iterations 4
GAMG:  Solving for p, Initial residual = 0.0171440279975, Final residual = 0.000600656963516, No Iterations 4
time step continuity errors : sum local = 0.0423077921989, global = -0.000231195574389, cumulative = 0.0442552810152
ExecutionTime = 1.63 s  ClockTime = 2 s

Time = 28

smoothSolver:  Solving for Ux, Initial residual = 0.00174166119713, Final residual = 0.000137975709096, No Iterations 4
smoothSolver:  Solving for Uy, Initial residual = 0.0213909097053, Final residual = 0.00161474736833, No Iterations 4
smoothSolver:  Solving for Uz, Initial residual = 0.00313405961322, Final residual = 0.000270850358557, No Iterations 4
GAMG:  Solving for p, Initial residual = 0.0147578882732, Final residual = 0.000474692382391, No Iterations 4
time step continuity errors : sum local = 0.0327608862398, global = 9.34641368907e-05, cumulative = 0.044348745152
ExecutionTime = 1.68 s  ClockTime = 2 s

Time = 29

smoothSolver:  Solving for Ux, Initial residual = 0.00174898797213, Final residual = 0.000139186991783, No Iterations 4
smoothSolver:  Solving for Uy, Initial residual = 0.0196498874612, Final residual = 0.00147446437477, No Iterations 4
smoothSolver:  Solving for Uz, Initial residual = 0.00303175467541, Final residual = 0.000263229969809, No Iterations 4
GAMG:  Solving for p, Initial residual = 0.013066408659, Final residual = 0.000408208241911, No Iterations 5
time step continuity errors : sum local = 0.0274643256492, global = 8.84132019988e-05, cumulative = 0.044437158354
ExecutionTime = 1.74 s  ClockTime = 2 s

Time = 30

smoothSolver:  Solving for Ux, Initial residual = 0.00175431640202, Final residual = 0.000140232247072, No Iterations 4
smoothSolver:  Solving for Uy, Initial residual = 0.017857814503, Final residual = 0.00133150691147, No Iterations 4
smoothSolver:  Solving for Uz, Initial residual = 0.00278157785849, Final residual = 0.000241364948832, No Iterations 4
GAMG:  Solving for p, Initial residual = 0.0125608580609, Final residual = 0.000564683715675, No Iterations 5
time step continuity errors : sum local = 0.0361358343065, global = 8.34550603966e-05, cumulative = 0.0445206134144
ExecutionTime = 1.79 s  ClockTime = 2 s

Time = 31

smoothSolver:  Solving for Ux, Initial residual = 0.00175628372307, Final residual = 0.000141107688452, No Iterations 4
smoothSolver:  Solving for Uy, Initial residual = 0.014600391867, Final residual = 0.00105156628943, No Iterations 4
smoothSolver:  Solving for Uz, Initial residual = 0.00252775916491, Final residual = 0.000218523485308, No Iterations 4
GAMG:  Solving for p, Initial residual = 0.0120826243684, Final residual = 0.000507551009894, No Iterations 4
time step continuity errors : sum local = 0.0308968275683, global = -2.93111823885e-05, cumulative = 0.0444913022321
ExecutionTime = 1.84 s  ClockTime = 2 s

Time = 32

smoothSolver:  Solving for Ux, Initial residual = 0.00176339596775, Final residual = 0.000142297248892, No Iterations 4
smoothSolver:  Solving for Uy, Initial residual = 0.0118955055807, Final residual = 0.00081519598879, No Iterations 4
smoothSolver:  Solving for Uz, Initial residual = 0.0023543835981, Final residual = 0.000202881184594, No Iterations 4
GAMG:  Solving for p, Initial residual = 0.0111827319648, Final residual = 0.000374370347165, No Iterations 4
time step continuity errors : sum local = 0.0218587421395, global = 0.000211924513451, cumulative = 0.0447032267455
ExecutionTime = 1.9 s  ClockTime = 2 s

Time = 33

smoothSolver:  Solving for Ux, Initial residual = 0.00177795991855, Final residual = 0.000144093614977, No Iterations 4
smoothSolver:  Solving for Uy, Initial residual = 0.0117840113377, Final residual = 0.000821047463524, No Iterations 4
smoothSolver:  Solving for Uz, Initial residual = 0.00231114368656, Final residual = 0.00019990932354, No Iterations 4
GAMG:  Solving for p, Initial residual = 0.00979771750654, Final residual = 0.000350154878905, No Iterations 4
time step continuity errors : sum local = 0.020040598603, global = 0.000141306891125, cumulative = 0.0448445336366
ExecutionTime = 1.96 s  ClockTime = 2 s

Time = 34

smoothSolver:  Solving for Ux, Initial residual = 0.00179419239765, Final residual = 0.000145912819138, No Iterations 4
smoothSolver:  Solving for Uy, Initial residual = 0.012000701848, Final residual = 0.000875970297699, No Iterations 4
smoothSolver:  Solving for Uz, Initial residual = 0.00232085166782, Final residual = 0.000202044221252, No Iterations 4
GAMG:  Solving for p, Initial residual = 0.00851051831475, Final residual = 0.00023792975255, No Iterations 4
time step continuity errors : sum local = 0.0133197776492, global = 0.000110292545281, cumulative = 0.0449548261819
ExecutionTime = 2.02 s  ClockTime = 2 s

Time = 35

smoothSolver:  Solving for Ux, Initial residual = 0.00180864966465, Final residual = 0.000147682722195, No Iterations 4
smoothSolver:  Solving for Uy, Initial residual = 0.0115769814402, Final residual = 0.000853239865707, No Iterations 4
smoothSolver:  Solving for Uz, Initial residual = 0.00227551226183, Final residual = 0.000198721148179, No Iterations 4
GAMG:  Solving for p, Initial residual = 0.00740620102486, Final residual = 0.000211915023305, No Iterations 4
time step continuity errors : sum local = 0.0116175936917, global = 0.000112164643033, cumulative = 0.0450669908249
ExecutionTime = 2.07 s  ClockTime = 2 s

Time = 36

smoothSolver:  Solving for Ux, Initial residual = 0.0018216958586, Final residual = 0.000149530910183, No Iterations 4
smoothSolver:  Solving for Uy, Initial residual = 0.0106279197441, Final residual = 0.000777272906358, No Iterations 4
smoothSolver:  Solving for Uz, Initial residual = 0.00218804304319, Final residual = 0.000191302459124, No Iterations 4
GAMG:  Solving for p, Initial residual = 0.0067037631846, Final residual = 0.000319992718374, No Iterations 4
time step continuity errors : sum local = 0.0172084944503, global = 0.000136935837093, cumulative = 0.045203926662
ExecutionTime = 2.13 s  ClockTime = 2 s

Time = 37

smoothSolver:  Solving for Ux, Initial residual = 0.00184294633574, Final residual = 0.000151699509743, No Iterations 4
smoothSolver:  Solving for Uy, Initial residual = 0.00947760390229, Final residual = 0.000679974034242, No Iterations 4
smoothSolver:  Solving for Uz, Initial residual = 0.00208626141003, Final residual = 0.00018238528859, No Iterations 4
GAMG:  Solving for p, Initial residual = 0.00636180473571, Final residual = 0.000248066808787, No Iterations 6
time step continuity errors : sum local = 0.0131164701804, global = 6.56508065921e-05, cumulative = 0.0452695774686
ExecutionTime = 2.19 s  ClockTime = 2 s

Time = 38

smoothSolver:  Solving for Ux, Initial residual = 0.00186534957511, Final residual = 0.000154257936472, No Iterations 4
smoothSolver:  Solving for Uy, Initial residual = 0.00848194337819, Final residual = 0.000593239261059, No Iterations 4
smoothSolver:  Solving for Uz, Initial residual = 0.00199197119271, Final residual = 0.000174025561483, No Iterations 4
GAMG:  Solving for p, Initial residual = 0.00595089731329, Final residual = 0.000252068366106, No Iterations 5
time step continuity errors : sum local = 0.013060930426, global = 4.65034062843e-05, cumulative = 0.0453160808749
ExecutionTime = 2.24 s  ClockTime = 2 s

Time = 39

smoothSolver:  Solving for Ux, Initial residual = 0.00189007610113, Final residual = 0.00015677243711, No Iterations 4
smoothSolver:  Solving for Uy, Initial residual = 0.00810203411306, Final residual = 0.000562704086681, No Iterations 4
smoothSolver:  Solving for Uz, Initial residual = 0.00192996599116, Final residual = 0.000168838300201, No Iterations 4
GAMG:  Solving for p, Initial residual = 0.0053626185996, Final residual = 0.000210268229554, No Iterations 4
time step continuity errors : sum local = 0.0106891080801, global = 2.50950472996e-06, cumulative = 0.0453185903796
ExecutionTime = 2.3 s  ClockTime = 2 s

Time = 40

smoothSolver:  Solving for Ux, Initial residual = 0.00192001619129, Final residual = 0.000159716703932, No Iterations 4
smoothSolver:  Solving for Uy, Initial residual = 0.00832136144124, Final residual = 0.000604780811954, No Iterations 4
smoothSolver:  Solving for Uz, Initial residual = 0.00190987810679, Final residual = 0.000167651197119, No Iterations 4
GAMG:  Solving for p, Initial residual = 0.00477658319662, Final residual = 0.000172607435402, No Iterations 4
time step continuity errors : sum local = 0.00859578530018, global = 2.14255763037e-05, cumulative = 0.0453400159559
ExecutionTime = 2.36 s  ClockTime = 2 s

Time = 41

smoothSolver:  Solving for Ux, Initial residual = 0.00195118361717, Final residual = 0.000162634824273, No Iterations 4
smoothSolver:  Solving for Uy, Initial residual = 0.0088747747774, Final residual = 0.00066796096174, No Iterations 4
smoothSolver:  Solving for Uz, Initial residual = 0.00188791953858, Final residual = 0.000166433949431, No Iterations 4
GAMG:  Solving for p, Initial residual = 0.0041836776026, Final residual = 0.000121616331914, No Iterations 4
time step continuity errors : sum local = 0.00595817931453, global = 1.36175913455e-05, cumulative = 0.0453536335473
ExecutionTime = 2.42 s  ClockTime = 3 s

Time = 42

smoothSolver:  Solving for Ux, Initial residual = 0.00198097611539, Final residual = 0.000165526537223, No Iterations 4
smoothSolver:  Solving for Uy, Initial residual = 0.00870416580151, Final residual = 0.000660754502839, No Iterations 4
smoothSolver:  Solving for Uz, Initial residual = 0.00184941670683, Final residual = 0.000163462557246, No Iterations 4
GAMG:  Solving for p, Initial residual = 0.00374060479696, Final residual = 0.000127679396974, No Iterations 4
time step continuity errors : sum local = 0.00614672998679, global = 1.29472023283e-05, cumulative = 0.0453665807496
ExecutionTime = 2.47 s  ClockTime = 3 s

Time = 43

smoothSolver:  Solving for Ux, Initial residual = 0.00201135520016, Final residual = 0.000168542912395, No Iterations 4
smoothSolver:  Solving for Uy, Initial residual = 0.00813865475878, Final residual = 0.000614992152954, No Iterations 4
smoothSolver:  Solving for Uz, Initial residual = 0.00179758920356, Final residual = 0.000159116012721, No Iterations 4
GAMG:  Solving for p, Initial residual = 0.00350298985948, Final residual = 0.000160344516954, No Iterations 4
time step continuity errors : sum local = 0.00759228998859, global = 3.07210786661e-05, cumulative = 0.0453973018283
ExecutionTime = 2.53 s  ClockTime = 3 s

Time = 44

smoothSolver:  Solving for Ux, Initial residual = 0.00204814038289, Final residual = 0.000171738461435, No Iterations 4
smoothSolver:  Solving for Uy, Initial residual = 0.00741719649675, Final residual = 0.00055252235209, No Iterations 4
smoothSolver:  Solving for Uz, Initial residual = 0.00174439066522, Final residual = 0.00015467328311, No Iterations 4
GAMG:  Solving for p, Initial residual = 0.00334388058497, Final residual = 0.00013018597181, No Iterations 5
time step continuity errors : sum local = 0.00607448488842, global = 3.86544324699e-05, cumulative = 0.0454359562608
ExecutionTime = 2.58 s  ClockTime = 3 s

Time = 45

smoothSolver:  Solving for Ux, Initial residual = 0.00208956933197, Final residual = 0.000175187328319, No Iterations 4
smoothSolver:  Solving for Uy, Initial residual = 0.00688333082645, Final residual = 0.000505994914432, No Iterations 4
smoothSolver:  Solving for Uz, Initial residual = 0.00169520854146, Final residual = 0.00015071280175, No Iterations 4
GAMG:  Solving for p, Initial residual = 0.00310894084305, Final residual = 0.000136812453783, No Iterations 5
time step continuity errors : sum local = 0.00628824949179, global = 2.41605011087e-05, cumulative = 0.0454601167619
ExecutionTime = 2.66 s  ClockTime = 3 s

Time = 46

smoothSolver:  Solving for Ux, Initial residual = 0.00212061073952, Final residual = 0.000178423046439, No Iterations 4
smoothSolver:  Solving for Uy, Initial residual = 0.00669191603025, Final residual = 0.000491482822702, No Iterations 4
smoothSolver:  Solving for Uz, Initial residual = 0.00166189811636, Final residual = 0.000148081272856, No Iterations 4
GAMG:  Solving for p, Initial residual = 0.00284407605509, Final residual = 9.58990926757e-05, No Iterations 4
time step continuity errors : sum local = 0.00433704637369, global = 1.53330266485e-05, cumulative = 0.0454754497885
ExecutionTime = 2.71 s  ClockTime = 3 s

Time = 47

smoothSolver:  Solving for Ux, Initial residual = 0.00215706340523, Final residual = 0.000181917181278, No Iterations 4
smoothSolver:  Solving for Uy, Initial residual = 0.00667174653257, Final residual = 0.000497534782357, No Iterations 4
smoothSolver:  Solving for Uz, Initial residual = 0.00163504210212, Final residual = 0.000146151153916, No Iterations 4
GAMG:  Solving for p, Initial residual = 0.00257956928025, Final residual = 7.79291650271e-05, No Iterations 4
time step continuity errors : sum local = 0.00347065144532, global = 8.02856290218e-06, cumulative = 0.0454834783514
ExecutionTime = 2.77 s  ClockTime = 3 s

Time = 48

smoothSolver:  Solving for Ux, Initial residual = 0.00219498189353, Final residual = 0.000185529621108, No Iterations 4
smoothSolver:  Solving for Uy, Initial residual = 0.00668123760987, Final residual = 0.000503194199651, No Iterations 4
smoothSolver:  Solving for Uz, Initial residual = 0.0016075285234, Final residual = 0.000143994171133, No Iterations 4
GAMG:  Solving for p, Initial residual = 0.0023400448473, Final residual = 7.31478181611e-05, No Iterations 4
time step continuity errors : sum local = 0.00321167403776, global = 6.15963525094e-06, cumulative = 0.0454896379867
ExecutionTime = 2.81 s  ClockTime = 3 s

Time = 49

smoothSolver:  Solving for Ux, Initial residual = 0.00223370798715, Final residual = 0.000189494590543, No Iterations 4
smoothSolver:  Solving for Uy, Initial residual = 0.00655778768976, Final residual = 0.000496389355415, No Iterations 4
smoothSolver:  Solving for Uz, Initial residual = 0.00157677711961, Final residual = 0.000141502875386, No Iterations 4
GAMG:  Solving for p, Initial residual = 0.00216743282222, Final residual = 7.05024596681e-05, No Iterations 5
time step continuity errors : sum local = 0.00305518709019, global = 1.33821558317e-05, cumulative = 0.0455030201425
ExecutionTime = 2.89 s  ClockTime = 3 s

Time = 50

smoothSolver:  Solving for Ux, Initial residual = 0.00227947721007, Final residual = 0.000193512953562, No Iterations 4
smoothSolver:  Solving for Uy, Initial residual = 0.00632918477658, Final residual = 0.000479942873404, No Iterations 4
smoothSolver:  Solving for Uz, Initial residual = 0.00154545804717, Final residual = 0.000138860239677, No Iterations 4
GAMG:  Solving for p, Initial residual = 0.00205546789675, Final residual = 9.20844412946e-05, No Iterations 4
time step continuity errors : sum local = 0.00394339532701, global = 1.06396431964e-05, cumulative = 0.0455136597857
ExecutionTime = 2.94 s  ClockTime = 3 s

Time = 51

smoothSolver:  Solving for Ux, Initial residual = 0.00233149220291, Final residual = 0.000197712274919, No Iterations 4
smoothSolver:  Solving for Uy, Initial residual = 0.00610560130845, Final residual = 0.000464295308351, No Iterations 4
smoothSolver:  Solving for Uz, Initial residual = 0.00151502346823, Final residual = 0.000136279122999, No Iterations 4
GAMG:  Solving for p, Initial residual = 0.00195317216624, Final residual = 6.98804570813e-05, No Iterations 5
time step continuity errors : sum local = 0.00295537207323, global = 1.14179197266e-05, cumulative = 0.0455250777054
ExecutionTime = 3 s  ClockTime = 3 s

Time = 52

smoothSolver:  Solving for Ux, Initial residual = 0.002385041389, Final residual = 0.000202149797871, No Iterations 4
smoothSolver:  Solving for Uy, Initial residual = 0.00592116493534, Final residual = 0.000454085621608, No Iterations 4
smoothSolver:  Solving for Uz, Initial residual = 0.00148739422829, Final residual = 0.000133929342792, No Iterations 4
GAMG:  Solving for p, Initial residual = 0.00181358852821, Final residual = 5.4420382359e-05, No Iterations 5
time step continuity errors : sum local = 0.00227227666012, global = 4.96599540753e-06, cumulative = 0.0455300437008
ExecutionTime = 3.06 s  ClockTime = 3 s

Time = 53

smoothSolver:  Solving for Ux, Initial residual = 0.0024481126375, Final residual = 0.000206705902701, No Iterations 4
smoothSolver:  Solving for Uy, Initial residual = 0.00585410291897, Final residual = 0.000454303695008, No Iterations 4
smoothSolver:  Solving for Uz, Initial residual = 0.00146186236097, Final residual = 0.000131704207911, No Iterations 4
GAMG:  Solving for p, Initial residual = 0.00167271895987, Final residual = 7.65559611356e-05, No Iterations 4
time step continuity errors : sum local = 0.0031539329564, global = -3.72803644392e-06, cumulative = 0.0455263156644
ExecutionTime = 3.12 s  ClockTime = 3 s

Time = 54

smoothSolver:  Solving for Ux, Initial residual = 0.00250744675269, Final residual = 0.000211497311474, No Iterations 4
smoothSolver:  Solving for Uy, Initial residual = 0.00582155462268, Final residual = 0.000456860825892, No Iterations 4
smoothSolver:  Solving for Uz, Initial residual = 0.00143612464876, Final residual = 0.000129413244897, No Iterations 4
GAMG:  Solving for p, Initial residual = 0.0015442930022, Final residual = 7.14400213637e-05, No Iterations 4
time step continuity errors : sum local = 0.00290509197971, global = 1.71564753629e-06, cumulative = 0.0455280313119
ExecutionTime = 3.18 s  ClockTime = 3 s

Time = 55

smoothSolver:  Solving for Ux, Initial residual = 0.00254486492769, Final residual = 0.000215402952217, No Iterations 4
smoothSolver:  Solving for Uy, Initial residual = 0.00578091536474, Final residual = 0.00045649815992, No Iterations 4
smoothSolver:  Solving for Uz, Initial residual = 0.00141829046988, Final residual = 0.000127291736969, No Iterations 4
GAMG:  Solving for p, Initial residual = 0.00144259491647, Final residual = 4.24636051598e-05, No Iterations 5
time step continuity errors : sum local = 0.00170716212517, global = 3.83271618638e-06, cumulative = 0.0455318640281
ExecutionTime = 3.23 s  ClockTime = 3 s

Time = 56

smoothSolver:  Solving for Ux, Initial residual = 0.00260190978396, Final residual = 0.000219844278069, No Iterations 4
smoothSolver:  Solving for Uy, Initial residual = 0.00566096004105, Final residual = 0.000445907688317, No Iterations 4
smoothSolver:  Solving for Uz, Initial residual = 0.00139879442645, Final residual = 0.000124968205545, No Iterations 4
GAMG:  Solving for p, Initial residual = 0.00137364114463, Final residual = 4.31987029574e-05, No Iterations 5
time step continuity errors : sum local = 0.00171625964228, global = 2.88943969999e-06, cumulative = 0.0455347534678
ExecutionTime = 3.29 s  ClockTime = 3 s

Time = 57

smoothSolver:  Solving for Ux, Initial residual = 0.00265463601501, Final residual = 0.000224685799888, No Iterations 4
smoothSolver:  Solving for Uy, Initial residual = 0.00549781565247, Final residual = 0.000430497827731, No Iterations 4
smoothSolver:  Solving for Uz, Initial residual = 0.00137648893017, Final residual = 0.000122610375182, No Iterations 4
GAMG:  Solving for p, Initial residual = 0.0013196776164, Final residual = 4.18533616369e-05, No Iterations 5
time step continuity errors : sum local = 0.00164228936585, global = 1.51717462099e-06, cumulative = 0.0455362706424
ExecutionTime = 3.35 s  ClockTime = 3 s

Time = 58

smoothSolver:  Solving for Ux, Initial residual = 0.0027160714294, Final residual = 0.000229786896047, No Iterations 4
smoothSolver:  Solving for Uy, Initial residual = 0.00534039985441, Final residual = 0.000415564383714, No Iterations 4
smoothSolver:  Solving for Uz, Initial residual = 0.001354865785, Final residual = 0.000120351489859, No Iterations 4
GAMG:  Solving for p, Initial residual = 0.00125577785271, Final residual = 5.51199926407e-05, No Iterations 4
time step continuity errors : sum local = 0.00213609415968, global = 1.87890994796e-06, cumulative = 0.0455381495524
ExecutionTime = 3.4 s  ClockTime = 4 s

Time = 59

smoothSolver:  Solving for Ux, Initial residual = 0.00278121233072, Final residual = 0.000235145464149, No Iterations 4
smoothSolver:  Solving for Uy, Initial residual = 0.00522556003059, Final residual = 0.00040479745882, No Iterations 4
smoothSolver:  Solving for Uz, Initial residual = 0.00133388735764, Final residual = 0.000118237631184, No Iterations 4
GAMG:  Solving for p, Initial residual = 0.00117975980781, Final residual = 4.03673487303e-05, No Iterations 5
time step continuity errors : sum local = 0.00154533696605, global = 2.57438270885e-06, cumulative = 0.0455407239351
ExecutionTime = 3.46 s  ClockTime = 4 s

Time = 60

smoothSolver:  Solving for Ux, Initial residual = 0.00285065092002, Final residual = 0.000240684798145, No Iterations 4
smoothSolver:  Solving for Uy, Initial residual = 0.0051247563094, Final residual = 0.000396262810264, No Iterations 4
smoothSolver:  Solving for Uz, Initial residual = 0.00131298444894, Final residual = 0.000116232482038, No Iterations 4
GAMG:  Solving for p, Initial residual = 0.00109471763475, Final residual = 3.30065754934e-05, No Iterations 5
time step continuity errors : sum local = 0.00124904665582, global = 1.2027477853e-06, cumulative = 0.0455419266829
ExecutionTime = 3.52 s  ClockTime = 4 s

Time = 61

smoothSolver:  Solving for Ux, Initial residual = 0.00292282542291, Final residual = 0.000246555174905, No Iterations 4
smoothSolver:  Solving for Uy, Initial residual = 0.00502901738561, Final residual = 0.000388891396032, No Iterations 4
smoothSolver:  Solving for Uz, Initial residual = 0.00129173375563, Final residual = 0.000114299049106, No Iterations 4
GAMG:  Solving for p, Initial residual = 0.00102601949805, Final residual = 2.83499671592e-05, No Iterations 5
time step continuity errors : sum local = 0.00106040090819, global = 8.95310521963e-07, cumulative = 0.0455428219934
ExecutionTime = 3.58 s  ClockTime = 4 s

Time = 62

smoothSolver:  Solving for Ux, Initial residual = 0.00300240797816, Final residual = 0.000252944982055, No Iterations 4
smoothSolver:  Solving for Uy, Initial residual = 0.00494233296899, Final residual = 0.000382673228049, No Iterations 4
smoothSolver:  Solving for Uz, Initial residual = 0.00127062991142, Final residual = 0.000112479905004, No Iterations 4
GAMG:  Solving for p, Initial residual = 0.000969273687316, Final residual = 2.64410889512e-05, No Iterations 5
time step continuity errors : sum local = 0.000978047378458, global = 7.18809498003e-07, cumulative = 0.0455435408029
ExecutionTime = 3.64 s  ClockTime = 4 s

Time = 63

smoothSolver:  Solving for Ux, Initial residual = 0.00308554240355, Final residual = 0.000259624888726, No Iterations 4
smoothSolver:  Solving for Uy, Initial residual = 0.0048656025999, Final residual = 0.000378098333736, No Iterations 4
smoothSolver:  Solving for Uz, Initial residual = 0.00124973406403, Final residual = 0.000110773042981, No Iterations 4
GAMG:  Solving for p, Initial residual = 0.000923581361802, Final residual = 2.60601912623e-05, No Iterations 5
time step continuity errors : sum local = 0.000953829323047, global = 8.84297042687e-07, cumulative = 0.0455444250999
ExecutionTime = 3.7 s  ClockTime = 4 s

Time = 64

smoothSolver:  Solving for Ux, Initial residual = 0.00316711513409, Final residual = 0.000266655659461, No Iterations 4
smoothSolver:  Solving for Uy, Initial residual = 0.00479890331569, Final residual = 0.000374841352595, No Iterations 4
smoothSolver:  Solving for Uz, Initial residual = 0.00122948381803, Final residual = 0.000109152298146, No Iterations 4
GAMG:  Solving for p, Initial residual = 0.000881738583483, Final residual = 2.53220207815e-05, No Iterations 5
time step continuity errors : sum local = 0.000917401035725, global = 8.89410815772e-07, cumulative = 0.0455453145108
ExecutionTime = 3.76 s  ClockTime = 4 s

Time = 65

smoothSolver:  Solving for Ux, Initial residual = 0.0032588226524, Final residual = 0.00027408550242, No Iterations 4
smoothSolver:  Solving for Uy, Initial residual = 0.00473054055029, Final residual = 0.000372237430672, No Iterations 4
smoothSolver:  Solving for Uz, Initial residual = 0.0012100585364, Final residual = 0.000107621864192, No Iterations 4
GAMG:  Solving for p, Initial residual = 0.000841473499795, Final residual = 3.15268579251e-05, No Iterations 5
time step continuity errors : sum local = 0.00113077875302, global = 1.47426390583e-06, cumulative = 0.0455467887747
ExecutionTime = 3.82 s  ClockTime = 4 s

Time = 66

smoothSolver:  Solving for Ux, Initial residual = 0.00336465962505, Final residual = 0.000281963345572, No Iterations 4
smoothSolver:  Solving for Uy, Initial residual = 0.00466844392838, Final residual = 0.000369549453683, No Iterations 4
smoothSolver:  Solving for Uz, Initial residual = 0.0011911644198, Final residual = 0.000106169911652, No Iterations 4
GAMG:  Solving for p, Initial residual = 0.000799640411897, Final residual = 3.78010266289e-05, No Iterations 5
time step continuity errors : sum local = 0.00134295686794, global = 2.58100475593e-06, cumulative = 0.0455493697794
ExecutionTime = 3.87 s  ClockTime = 4 s

Time = 67

smoothSolver:  Solving for Ux, Initial residual = 0.00348409884365, Final residual = 0.000290338585836, No Iterations 4
smoothSolver:  Solving for Uy, Initial residual = 0.00461859367505, Final residual = 0.000366408166599, No Iterations 4
smoothSolver:  Solving for Uz, Initial residual = 0.00117320423884, Final residual = 0.000104772542595, No Iterations 4
GAMG:  Solving for p, Initial residual = 0.00076236847422, Final residual = 3.34494615182e-05, No Iterations 6
time step continuity errors : sum local = 0.00117645834324, global = 2.47881146967e-06, cumulative = 0.0455518485909
ExecutionTime = 3.92 s  ClockTime = 4 s

Time = 68

smoothSolver:  Solving for Ux, Initial residual = 0.00362514789158, Final residual = 0.000299298847234, No Iterations 4
smoothSolver:  Solving for Uy, Initial residual = 0.00454009109672, Final residual = 0.000360072737765, No Iterations 4
smoothSolver:  Solving for Uz, Initial residual = 0.00115475849925, Final residual = 0.000103510764071, No Iterations 4
GAMG:  Solving for p, Initial residual = 0.000731933837131, Final residual = 2.65674097914e-05, No Iterations 6
time step continuity errors : sum local = 0.000925499814074, global = 2.85125606033e-06, cumulative = 0.0455546998469
ExecutionTime = 3.98 s  ClockTime = 4 s

Time = 69

smoothSolver:  Solving for Ux, Initial residual = 0.00379794340105, Final residual = 0.000309133973473, No Iterations 4
smoothSolver:  Solving for Uy, Initial residual = 0.00445377966728, Final residual = 0.00035257425373, No Iterations 4
smoothSolver:  Solving for Uz, Initial residual = 0.00113521941847, Final residual = 0.000102430797948, No Iterations 4
GAMG:  Solving for p, Initial residual = 0.000700047059988, Final residual = 1.96239075345e-05, No Iterations 7
time step continuity errors : sum local = 0.000677354749097, global = 1.20884382948e-06, cumulative = 0.0455559086908
ExecutionTime = 4.05 s  ClockTime = 4 s

Time = 70

smoothSolver:  Solving for Ux, Initial residual = 0.00395823693891, Final residual = 0.000319448280561, No Iterations 4
smoothSolver:  Solving for Uy, Initial residual = 0.00438455068951, Final residual = 0.000346969296196, No Iterations 4
smoothSolver:  Solving for Uz, Initial residual = 0.00111640795792, Final residual = 0.000101346881009, No Iterations 4
GAMG:  Solving for p, Initial residual = 0.000713248640077, Final residual = 2.58661918953e-05, No Iterations 5
time step continuity errors : sum local = 0.000884615997952, global = 7.7264830321e-07, cumulative = 0.0455566813391
ExecutionTime = 4.11 s  ClockTime = 4 s

Time = 71

smoothSolver:  Solving for Ux, Initial residual = 0.00395981473091, Final residual = 0.000327354805717, No Iterations 4
smoothSolver:  Solving for Uy, Initial residual = 0.00436868748879, Final residual = 0.000344342780143, No Iterations 4
smoothSolver:  Solving for Uz, Initial residual = 0.00110316795228, Final residual = 9.99978992052e-05, No Iterations 4
GAMG:  Solving for p, Initial residual = 0.000721171743381, Final residual = 2.74780269523e-05, No Iterations 5
time step continuity errors : sum local = 0.000931609854266, global = 1.27071310368e-06, cumulative = 0.0455579520522
ExecutionTime = 4.17 s  ClockTime = 4 s

Time = 72

smoothSolver:  Solving for Ux, Initial residual = 0.00408511569863, Final residual = 0.000338104971832, No Iterations 4
smoothSolver:  Solving for Uy, Initial residual = 0.00431179856111, Final residual = 0.000339504652126, No Iterations 4
smoothSolver:  Solving for Uz, Initial residual = 0.00109001708921, Final residual = 9.85790572969e-05, No Iterations 4
GAMG:  Solving for p, Initial residual = 0.000720324957567, Final residual = 2.92433103377e-05, No Iterations 5
time step continuity errors : sum local = 0.000982329042125, global = 1.16087555968e-06, cumulative = 0.0455591129277
ExecutionTime = 4.22 s  ClockTime = 4 s

Time = 73

smoothSolver:  Solving for Ux, Initial residual = 0.00423827529837, Final residual = 0.000349750163458, No Iterations 4
smoothSolver:  Solving for Uy, Initial residual = 0.00421353526567, Final residual = 0.000332164109953, No Iterations 4
smoothSolver:  Solving for Uz, Initial residual = 0.00107594290297, Final residual = 9.72166636585e-05, No Iterations 4
GAMG:  Solving for p, Initial residual = 0.000702532422505, Final residual = 3.15428397605e-05, No Iterations 5
time step continuity errors : sum local = 0.00105030587674, global = 1.40603605972e-06, cumulative = 0.0455605189638
ExecutionTime = 4.28 s  ClockTime = 4 s

Time = 74

smoothSolver:  Solving for Ux, Initial residual = 0.00441146307942, Final residual = 0.000362429959443, No Iterations 4
smoothSolver:  Solving for Uy, Initial residual = 0.00411188691584, Final residual = 0.000324719639141, No Iterations 4
smoothSolver:  Solving for Uz, Initial residual = 0.00106084313222, Final residual = 9.5908403508e-05, No Iterations 4
GAMG:  Solving for p, Initial residual = 0.000682625082246, Final residual = 3.1911857206e-05, No Iterations 5
time step continuity errors : sum local = 0.00105232960838, global = 2.53275073492e-06, cumulative = 0.0455630517145
ExecutionTime = 4.33 s  ClockTime = 4 s

Time = 75

smoothSolver:  Solving for Ux, Initial residual = 0.00455894371265, Final residual = 0.00037551923162, No Iterations 4
smoothSolver:  Solving for Uy, Initial residual = 0.00401080067104, Final residual = 0.000318082872295, No Iterations 4
smoothSolver:  Solving for Uz, Initial residual = 0.00104632095688, Final residual = 9.46228939593e-05, No Iterations 4
GAMG:  Solving for p, Initial residual = 0.000644986303361, Final residual = 2.14886576954e-05, No Iterations 6
time step continuity errors : sum local = 0.000702270022576, global = 6.94240908126e-07, cumulative = 0.0455637459554
ExecutionTime = 4.39 s  ClockTime = 5 s

Time = 76

smoothSolver:  Solving for Ux, Initial residual = 0.00473029683975, Final residual = 0.000389541292168, No Iterations 4
smoothSolver:  Solving for Uy, Initial residual = 0.00391668482519, Final residual = 0.000312411856226, No Iterations 4
smoothSolver:  Solving for Uz, Initial residual = 0.0010325112126, Final residual = 9.3296321023e-05, No Iterations 4
GAMG:  Solving for p, Initial residual = 0.000624699831748, Final residual = 3.11110972378e-05, No Iterations 5
time step continuity errors : sum local = 0.00100694869523, global = 2.02162862753e-06, cumulative = 0.0455657675841
ExecutionTime = 4.45 s  ClockTime = 5 s

Time = 77

smoothSolver:  Solving for Ux, Initial residual = 0.00487447012938, Final residual = 0.000404181385643, No Iterations 4
smoothSolver:  Solving for Uy, Initial residual = 0.00385641678757, Final residual = 0.000308895236202, No Iterations 4
smoothSolver:  Solving for Uz, Initial residual = 0.00102122552796, Final residual = 9.19107843269e-05, No Iterations 4
GAMG:  Solving for p, Initial residual = 0.000599009018973, Final residual = 1.54442095653e-05, No Iterations 6
time step continuity errors : sum local = 0.000495494220251, global = 1.45313394246e-06, cumulative = 0.045567220718
ExecutionTime = 4.51 s  ClockTime = 5 s

Time = 78

smoothSolver:  Solving for Ux, Initial residual = 0.00509412896316, Final residual = 0.000421215646591, No Iterations 4
smoothSolver:  Solving for Uy, Initial residual = 0.00380011306931, Final residual = 0.000305239439322, No Iterations 4
smoothSolver:  Solving for Uz, Initial residual = 0.00100948472129, Final residual = 9.04859610047e-05, No Iterations 4
GAMG:  Solving for p, Initial residual = 0.000589087967398, Final residual = 2.83475222589e-05, No Iterations 5
time step continuity errors : sum local = 0.000900579792338, global = -1.08987903708e-06, cumulative = 0.045566130839
ExecutionTime = 4.57 s  ClockTime = 5 s

Time = 79

smoothSolver:  Solving for Ux, Initial residual = 0.00532129895614, Final residual = 0.000439131321283, No Iterations 4
smoothSolver:  Solving for Uy, Initial residual = 0.00373944153466, Final residual = 0.000300565020462, No Iterations 4
smoothSolver:  Solving for Uz, Initial residual = 0.000997218431315, Final residual = 8.91251572005e-05, No Iterations 4
GAMG:  Solving for p, Initial residual = 0.000567143443899, Final residual = 2.55521595728e-05, No Iterations 5
time step continuity errors : sum local = 0.000804494844291, global = -3.42512161481e-07, cumulative = 0.0455657883268
ExecutionTime = 4.63 s  ClockTime = 5 s

Time = 80

smoothSolver:  Solving for Ux, Initial residual = 0.00557314600803, Final residual = 0.000458711092185, No Iterations 4
smoothSolver:  Solving for Uy, Initial residual = 0.00367321323024, Final residual = 0.000294721580538, No Iterations 4
smoothSolver:  Solving for Uz, Initial residual = 0.000984525314207, Final residual = 8.78448930896e-05, No Iterations 4
GAMG:  Solving for p, Initial residual = 0.000543842902191, Final residual = 2.39586247247e-05, No Iterations 5
time step continuity errors : sum local = 0.000747574869254, global = -1.98227823123e-06, cumulative = 0.0455638060486
ExecutionTime = 4.69 s  ClockTime = 5 s

Time = 81

smoothSolver:  Solving for Ux, Initial residual = 0.00583912857639, Final residual = 0.000479496060662, No Iterations 4
smoothSolver:  Solving for Uy, Initial residual = 0.00360725549124, Final residual = 0.00028908549616, No Iterations 4
smoothSolver:  Solving for Uz, Initial residual = 0.000971905196314, Final residual = 8.66456822333e-05, No Iterations 4
GAMG:  Solving for p, Initial residual = 0.000530109137903, Final residual = 1.29971853493e-05, No Iterations 6
time step continuity errors : sum local = 0.000401939980596, global = 5.48248778202e-07, cumulative = 0.0455643542974
ExecutionTime = 4.74 s  ClockTime = 5 s

Time = 82

smoothSolver:  Solving for Ux, Initial residual = 0.0061460862417, Final residual = 0.00050210224792, No Iterations 4
smoothSolver:  Solving for Uy, Initial residual = 0.00355535658087, Final residual = 0.000284514114243, No Iterations 4
smoothSolver:  Solving for Uz, Initial residual = 0.000959240501453, Final residual = 8.55379403647e-05, No Iterations 4
GAMG:  Solving for p, Initial residual = 0.000520605122561, Final residual = 2.04299250595e-05, No Iterations 5
time step continuity errors : sum local = 0.000626145238342, global = 3.91986400879e-07, cumulative = 0.0455647462838
ExecutionTime = 4.8 s  ClockTime = 5 s

Time = 83

smoothSolver:  Solving for Ux, Initial residual = 0.00650294848841, Final residual = 0.000526587141584, No Iterations 4
smoothSolver:  Solving for Uy, Initial residual = 0.00351564113727, Final residual = 0.000280970148894, No Iterations 4
smoothSolver:  Solving for Uz, Initial residual = 0.000946525922292, Final residual = 8.45562114813e-05, No Iterations 4
GAMG:  Solving for p, Initial residual = 0.000504085745183, Final residual = 1.87225164782e-05, No Iterations 5
time step continuity errors : sum local = 0.000569182077547, global = 4.94954465596e-07, cumulative = 0.0455652412382
ExecutionTime = 4.86 s  ClockTime = 5 s

Time = 84

smoothSolver:  Solving for Ux, Initial residual = 0.00688120880764, Final residual = 0.000552077461695, No Iterations 4
smoothSolver:  Solving for Uy, Initial residual = 0.00346761948065, Final residual = 0.000277369445011, No Iterations 4
smoothSolver:  Solving for Uz, Initial residual = 0.000933364008942, Final residual = 8.37072238181e-05, No Iterations 4
GAMG:  Solving for p, Initial residual = 0.000498341954136, Final residual = 2.14323824491e-05, No Iterations 5
time step continuity errors : sum local = 0.000646355860051, global = 1.02440507107e-06, cumulative = 0.0455662656433
ExecutionTime = 4.92 s  ClockTime = 5 s

Time = 85

smoothSolver:  Solving for Ux, Initial residual = 0.00686606979502, Final residual = 0.000548839206559, No Iterations 4
smoothSolver:  Solving for Uy, Initial residual = 0.00343140245786, Final residual = 0.000275414707056, No Iterations 4
smoothSolver:  Solving for Uz, Initial residual = 0.000921459766938, Final residual = 8.291814843e-05, No Iterations 4
GAMG:  Solving for p, Initial residual = 0.000490007773266, Final residual = 2.14330466979e-05, No Iterations 5
time step continuity errors : sum local = 0.00064131081656, global = -1.04828292667e-06, cumulative = 0.0455652173604
ExecutionTime = 4.99 s  ClockTime = 5 s

Time = 86

smoothSolver:  Solving for Ux, Initial residual = 0.00676583733651, Final residual = 0.000526187235528, No Iterations 4
smoothSolver:  Solving for Uy, Initial residual = 0.00338319281246, Final residual = 0.000272471295005, No Iterations 4
smoothSolver:  Solving for Uz, Initial residual = 0.000908529349325, Final residual = 8.23607174222e-05, No Iterations 4
GAMG:  Solving for p, Initial residual = 0.000483694941113, Final residual = 2.2631050772e-05, No Iterations 6
time step continuity errors : sum local = 0.000672167880924, global = 2.85175552698e-07, cumulative = 0.0455655025359
ExecutionTime = 5.05 s  ClockTime = 5 s

Time = 87

smoothSolver:  Solving for Ux, Initial residual = 0.00631259323322, Final residual = 0.000496377574022, No Iterations 4
smoothSolver:  Solving for Uy, Initial residual = 0.00334365622477, Final residual = 0.000269431272293, No Iterations 4
smoothSolver:  Solving for Uz, Initial residual = 0.000896691423558, Final residual = 8.17327639176e-05, No Iterations 4
GAMG:  Solving for p, Initial residual = 0.000490585431655, Final residual = 1.41762382399e-05, No Iterations 7
time step continuity errors : sum local = 0.000417992674654, global = 4.09208242014e-07, cumulative = 0.0455659117442
ExecutionTime = 5.11 s  ClockTime = 5 s

Time = 88

smoothSolver:  Solving for Ux, Initial residual = 0.00580341410191, Final residual = 0.000468597666503, No Iterations 4
smoothSolver:  Solving for Uy, Initial residual = 0.00328870536637, Final residual = 0.000264989939368, No Iterations 4
smoothSolver:  Solving for Uz, Initial residual = 0.000888658150732, Final residual = 8.07544400018e-05, No Iterations 4
GAMG:  Solving for p, Initial residual = 0.000490567838609, Final residual = 1.68884251454e-05, No Iterations 6
time step continuity errors : sum local = 0.000494245226197, global = 8.2084988326e-07, cumulative = 0.045566732594
ExecutionTime = 5.17 s  ClockTime = 5 s

Time = 89

smoothSolver:  Solving for Ux, Initial residual = 0.00557468386622, Final residual = 0.000443894666742, No Iterations 4
smoothSolver:  Solving for Uy, Initial residual = 0.00322786005573, Final residual = 0.000259139832882, No Iterations 4
smoothSolver:  Solving for Uz, Initial residual = 0.000879805164502, Final residual = 7.97502583749e-05, No Iterations 4
GAMG:  Solving for p, Initial residual = 0.00049409595106, Final residual = 1.66096184503e-05, No Iterations 7
time step continuity errors : sum local = 0.000482344139992, global = 1.28072610237e-06, cumulative = 0.0455680133202
ExecutionTime = 5.23 s  ClockTime = 5 s

Time = 90

smoothSolver:  Solving for Ux, Initial residual = 0.00530294795679, Final residual = 0.000419794847804, No Iterations 4
smoothSolver:  Solving for Uy, Initial residual = 0.00313785705238, Final residual = 0.000252331040599, No Iterations 4
smoothSolver:  Solving for Uz, Initial residual = 0.000870141240064, Final residual = 7.8802498455e-05, No Iterations 4
GAMG:  Solving for p, Initial residual = 0.000495069150504, Final residual = 1.57723337592e-05, No Iterations 6
time step continuity errors : sum local = 0.000454291556325, global = 7.37500273495e-07, cumulative = 0.0455687508204
ExecutionTime = 5.29 s  ClockTime = 5 s

Time = 91

smoothSolver:  Solving for Ux, Initial residual = 0.00501303031117, Final residual = 0.000396645219666, No Iterations 4
smoothSolver:  Solving for Uy, Initial residual = 0.00305389794672, Final residual = 0.00024682662774, No Iterations 4
smoothSolver:  Solving for Uz, Initial residual = 0.000860292967961, Final residual = 7.7902886273e-05, No Iterations 4
GAMG:  Solving for p, Initial residual = 0.000488564938738, Final residual = 2.38189054175e-05, No Iterations 5
time step continuity errors : sum local = 0.000680347397754, global = 1.76760197527e-06, cumulative = 0.0455705184224
ExecutionTime = 5.35 s  ClockTime = 5 s

Time = 92

smoothSolver:  Solving for Ux, Initial residual = 0.00470376732524, Final residual = 0.000374939069768, No Iterations 4
smoothSolver:  Solving for Uy, Initial residual = 0.00299402775562, Final residual = 0.000242988991523, No Iterations 4
smoothSolver:  Solving for Uz, Initial residual = 0.000851256340936, Final residual = 7.69458705502e-05, No Iterations 4
GAMG:  Solving for p, Initial residual = 0.000465161054195, Final residual = 2.0255801649e-05, No Iterations 6
time step continuity errors : sum local = 0.000574107805867, global = 3.61672981801e-07, cumulative = 0.0455708800954
ExecutionTime = 5.4 s  ClockTime = 6 s

Time = 93

smoothSolver:  Solving for Ux, Initial residual = 0.00445570061095, Final residual = 0.000355508359963, No Iterations 4
smoothSolver:  Solving for Uy, Initial residual = 0.00294979034185, Final residual = 0.000239434976367, No Iterations 4
smoothSolver:  Solving for Uz, Initial residual = 0.000843059172125, Final residual = 7.59238588797e-05, No Iterations 4
GAMG:  Solving for p, Initial residual = 0.000451036395382, Final residual = 1.15729610994e-05, No Iterations 7
time step continuity errors : sum local = 0.0003253151847, global = 1.70752469575e-07, cumulative = 0.0455710508479
ExecutionTime = 5.46 s  ClockTime = 6 s

Time = 94

smoothSolver:  Solving for Ux, Initial residual = 0.00425776975651, Final residual = 0.000337822756289, No Iterations 4
smoothSolver:  Solving for Uy, Initial residual = 0.00291742744562, Final residual = 0.000237162798652, No Iterations 4
smoothSolver:  Solving for Uz, Initial residual = 0.000834506110133, Final residual = 7.49261340954e-05, No Iterations 4
GAMG:  Solving for p, Initial residual = 0.00043412389427, Final residual = 1.10841917745e-05, No Iterations 6
time step continuity errors : sum local = 0.000309029578084, global = 6.59254810391e-07, cumulative = 0.0455717101027
ExecutionTime = 5.52 s  ClockTime = 6 s

Time = 95

smoothSolver:  Solving for Ux, Initial residual = 0.0040533210404, Final residual = 0.000321720258072, No Iterations 4
smoothSolver:  Solving for Uy, Initial residual = 0.00287874737437, Final residual = 0.000234397849366, No Iterations 4
smoothSolver:  Solving for Uz, Initial residual = 0.000825935902301, Final residual = 7.39682849036e-05, No Iterations 4
GAMG:  Solving for p, Initial residual = 0.000422677166221, Final residual = 1.08638247298e-05, No Iterations 6
time step continuity errors : sum local = 0.000300494220779, global = 8.00192413688e-07, cumulative = 0.0455725102951
ExecutionTime = 5.58 s  ClockTime = 6 s

Time = 96

smoothSolver:  Solving for Ux, Initial residual = 0.00387596862894, Final residual = 0.000307061312586, No Iterations 4
smoothSolver:  Solving for Uy, Initial residual = 0.00283621415452, Final residual = 0.000230465852232, No Iterations 4
smoothSolver:  Solving for Uz, Initial residual = 0.000816972203601, Final residual = 7.30973464389e-05, No Iterations 4
GAMG:  Solving for p, Initial residual = 0.000414587183111, Final residual = 1.87121785036e-05, No Iterations 5
time step continuity errors : sum local = 0.000513577154642, global = -3.79932418422e-07, cumulative = 0.0455721303627
ExecutionTime = 5.63 s  ClockTime = 6 s

Time = 97

smoothSolver:  Solving for Ux, Initial residual = 0.00372330319133, Final residual = 0.000293615300866, No Iterations 4
smoothSolver:  Solving for Uy, Initial residual = 0.00279715182253, Final residual = 0.000226593747072, No Iterations 4
smoothSolver:  Solving for Uz, Initial residual = 0.000807748360773, Final residual = 7.234872479e-05, No Iterations 4
GAMG:  Solving for p, Initial residual = 0.000406962816193, Final residual = 2.01995299405e-05, No Iterations 5
time step continuity errors : sum local = 0.00055031936318, global = -7.58775254231e-07, cumulative = 0.0455713715874
ExecutionTime = 5.69 s  ClockTime = 6 s

Time = 98

smoothSolver:  Solving for Ux, Initial residual = 0.00356235641287, Final residual = 0.000281023336831, No Iterations 4
smoothSolver:  Solving for Uy, Initial residual = 0.00275787918641, Final residual = 0.000223397029678, No Iterations 4
smoothSolver:  Solving for Uz, Initial residual = 0.000798598318341, Final residual = 7.16726564302e-05, No Iterations 4
GAMG:  Solving for p, Initial residual = 0.000407084653645, Final residual = 1.04949229387e-05, No Iterations 7
time step continuity errors : sum local = 0.000283787834007, global = 2.95974743717e-07, cumulative = 0.0455716675621
ExecutionTime = 5.75 s  ClockTime = 6 s

Time = 99

smoothSolver:  Solving for Ux, Initial residual = 0.00343591700096, Final residual = 0.00026933302777, No Iterations 4
smoothSolver:  Solving for Uy, Initial residual = 0.00272186023899, Final residual = 0.000221220310376, No Iterations 4
smoothSolver:  Solving for Uz, Initial residual = 0.000789364090121, Final residual = 7.1068822861e-05, No Iterations 4
GAMG:  Solving for p, Initial residual = 0.000401888020157, Final residual = 1.89175714431e-05, No Iterations 5
time step continuity errors : sum local = 0.000507836609938, global = 1.99529167619e-07, cumulative = 0.0455718670913
ExecutionTime = 5.8 s  ClockTime = 6 s

Time = 100

smoothSolver:  Solving for Ux, Initial residual = 0.00335513648555, Final residual = 0.000257835678119, No Iterations 4
smoothSolver:  Solving for Uy, Initial residual = 0.00271673749343, Final residual = 0.000220742613496, No Iterations 4
smoothSolver:  Solving for Uz, Initial residual = 0.000779644820867, Final residual = 7.06229185888e-05, No Iterations 4
GAMG:  Solving for p, Initial residual = 0.000394862667737, Final residual = 1.450916546e-05, No Iterations 5
time step continuity errors : sum local = 0.000386926265431, global = 1.56003942614e-06, cumulative = 0.0455734271307
ExecutionTime = 5.86 s  ClockTime = 6 s

Time = 101

smoothSolver:  Solving for Ux, Initial residual = 0.00327660462979, Final residual = 0.000246305223657, No Iterations 4
smoothSolver:  Solving for Uy, Initial residual = 0.00269439323166, Final residual = 0.000218476785452, No Iterations 4
smoothSolver:  Solving for Uz, Initial residual = 0.000768404244435, Final residual = 7.03379608187e-05, No Iterations 4
GAMG:  Solving for p, Initial residual = 0.000394573393149, Final residual = 1.11863349143e-05, No Iterations 6
time step continuity errors : sum local = 0.000296331054357, global = 1.26284256127e-07, cumulative = 0.045573553415
ExecutionTime = 5.94 s  ClockTime = 6 s

Time = 102

smoothSolver:  Solving for Ux, Initial residual = 0.00294075245102, Final residual = 0.000238396933447, No Iterations 4
smoothSolver:  Solving for Uy, Initial residual = 0.0026300387604, Final residual = 0.000215008304155, No Iterations 4
smoothSolver:  Solving for Uz, Initial residual = 0.000762756073621, Final residual = 6.95338350549e-05, No Iterations 4
GAMG:  Solving for p, Initial residual = 0.000394715206765, Final residual = 1.27807994537e-05, No Iterations 6
time step continuity errors : sum local = 0.000336397093013, global = 1.51405633134e-06, cumulative = 0.0455750674713
ExecutionTime = 5.99 s  ClockTime = 6 s

Time = 103

smoothSolver:  Solving for Ux, Initial residual = 0.00288544680616, Final residual = 0.0002309434691, No Iterations 4
smoothSolver:  Solving for Uy, Initial residual = 0.00257673255401, Final residual = 0.000211319903784, No Iterations 4
smoothSolver:  Solving for Uz, Initial residual = 0.00075684520651, Final residual = 6.86632804555e-05, No Iterations 4
GAMG:  Solving for p, Initial residual = 0.000388063358097, Final residual = 1.36163671046e-05, No Iterations 6
time step continuity errors : sum local = 0.000356029781058, global = 9.41062263397e-07, cumulative = 0.0455760085336
ExecutionTime = 6.05 s  ClockTime = 6 s

Time = 104

smoothSolver:  Solving for Ux, Initial residual = 0.00279777200577, Final residual = 0.00022299721492, No Iterations 4
smoothSolver:  Solving for Uy, Initial residual = 0.00252200690464, Final residual = 0.000206457468463, No Iterations 4
smoothSolver:  Solving for Uz, Initial residual = 0.000749884900547, Final residual = 6.7857777554e-05, No Iterations 4
GAMG:  Solving for p, Initial residual = 0.000400910403855, Final residual = 1.41170964966e-05, No Iterations 6
time step continuity errors : sum local = 0.000366409979919, global = 1.34770672925e-06, cumulative = 0.0455773562403
ExecutionTime = 6.12 s  ClockTime = 6 s

Time = 105

smoothSolver:  Solving for Ux, Initial residual = 0.00271965716592, Final residual = 0.000215204296942, No Iterations 4
smoothSolver:  Solving for Uy, Initial residual = 0.00246890198726, Final residual = 0.000201496201319, No Iterations 4
smoothSolver:  Solving for Uz, Initial residual = 0.000741693502119, Final residual = 6.71823099608e-05, No Iterations 4
GAMG:  Solving for p, Initial residual = 0.000406277400516, Final residual = 1.12675649626e-05, No Iterations 7
time step continuity errors : sum local = 0.000290274322358, global = 7.51331267188e-07, cumulative = 0.0455781075716
ExecutionTime = 6.18 s  ClockTime = 6 s

Time = 106

smoothSolver:  Solving for Ux, Initial residual = 0.00259280621533, Final residual = 0.000208566933127, No Iterations 4
smoothSolver:  Solving for Uy, Initial residual = 0.0024260511431, Final residual = 0.000198453430628, No Iterations 4
smoothSolver:  Solving for Uz, Initial residual = 0.00073408684537, Final residual = 6.64534487416e-05, No Iterations 4
GAMG:  Solving for p, Initial residual = 0.00039489302648, Final residual = 1.61827167808e-05, No Iterations 6
time step continuity errors : sum local = 0.000413850974562, global = 4.45188292038e-07, cumulative = 0.0455785527599
ExecutionTime = 6.24 s  ClockTime = 6 s

Time = 107

smoothSolver:  Solving for Ux, Initial residual = 0.0024762447286, Final residual = 0.000202838022567, No Iterations 4
smoothSolver:  Solving for Uy, Initial residual = 0.00238690398799, Final residual = 0.000195760044352, No Iterations 4
smoothSolver:  Solving for Uz, Initial residual = 0.000727871795563, Final residual = 6.56119074981e-05, No Iterations 4
GAMG:  Solving for p, Initial residual = 0.000381825275388, Final residual = 1.2217963838e-05, No Iterations 7
time step continuity errors : sum local = 0.000310281939114, global = 6.29590859469e-07, cumulative = 0.0455791823507
ExecutionTime = 6.3 s  ClockTime = 6 s

Time = 108

smoothSolver:  Solving for Ux, Initial residual = 0.00241231877364, Final residual = 0.000197307303926, No Iterations 4
smoothSolver:  Solving for Uy, Initial residual = 0.00236796210285, Final residual = 0.00019443055303, No Iterations 4
smoothSolver:  Solving for Uz, Initial residual = 0.000721481180789, Final residual = 6.47957609602e-05, No Iterations 4
GAMG:  Solving for p, Initial residual = 0.000365187746008, Final residual = 9.00329488e-06, No Iterations 6
time step continuity errors : sum local = 0.000227038040809, global = 3.65724847935e-07, cumulative = 0.0455795480756
ExecutionTime = 6.35 s  ClockTime = 6 s

Time = 109

smoothSolver:  Solving for Ux, Initial residual = 0.00234854826937, Final residual = 0.000191690993393, No Iterations 4
smoothSolver:  Solving for Uy, Initial residual = 0.0023486225189, Final residual = 0.000192088316203, No Iterations 4
smoothSolver:  Solving for Uz, Initial residual = 0.000714146895417, Final residual = 6.40506191761e-05, No Iterations 4
GAMG:  Solving for p, Initial residual = 0.000365420148511, Final residual = 1.75165224011e-05, No Iterations 5
time step continuity errors : sum local = 0.000438520954022, global = -1.3577981951e-07, cumulative = 0.0455794122958
ExecutionTime = 6.41 s  ClockTime = 7 s

Time = 110

smoothSolver:  Solving for Ux, Initial residual = 0.00228978141313, Final residual = 0.000186274703945, No Iterations 4
smoothSolver:  Solving for Uy, Initial residual = 0.00232073510787, Final residual = 0.000188827999483, No Iterations 4
smoothSolver:  Solving for Uz, Initial residual = 0.000706415427184, Final residual = 6.34394869611e-05, No Iterations 4
GAMG:  Solving for p, Initial residual = 0.000359308628189, Final residual = 9.70979340702e-06, No Iterations 7
time step continuity errors : sum local = 0.00024147362227, global = 2.0235951863e-07, cumulative = 0.0455796146553
ExecutionTime = 6.47 s  ClockTime = 7 s

Time = 111

smoothSolver:  Solving for Ux, Initial residual = 0.00222465104441, Final residual = 0.00018131543961, No Iterations 4
smoothSolver:  Solving for Uy, Initial residual = 0.00228398440763, Final residual = 0.000185930068595, No Iterations 4
smoothSolver:  Solving for Uz, Initial residual = 0.00069881603957, Final residual = 6.28734664982e-05, No Iterations 4
GAMG:  Solving for p, Initial residual = 0.000354224274272, Final residual = 9.14658978807e-06, No Iterations 6
time step continuity errors : sum local = 0.000225934871488, global = -2.11298705897e-08, cumulative = 0.0455795935254
ExecutionTime = 6.52 s  ClockTime = 7 s

Time = 112

smoothSolver:  Solving for Ux, Initial residual = 0.00218279685745, Final residual = 0.000176354593048, No Iterations 4
smoothSolver:  Solving for Uy, Initial residual = 0.00226452157885, Final residual = 0.000185074922988, No Iterations 4
smoothSolver:  Solving for Uz, Initial residual = 0.000691234247245, Final residual = 6.24011944256e-05, No Iterations 4
GAMG:  Solving for p, Initial residual = 0.000349961934175, Final residual = 1.55834250331e-05, No Iterations 5
time step continuity errors : sum local = 0.000382462486415, global = 1.12654445752e-06, cumulative = 0.0455807200699
ExecutionTime = 6.58 s  ClockTime = 7 s

Time = 113

smoothSolver:  Solving for Ux, Initial residual = 0.00216219975106, Final residual = 0.000171444539644, No Iterations 4
smoothSolver:  Solving for Uy, Initial residual = 0.00224694376424, Final residual = 0.000184796813835, No Iterations 4
smoothSolver:  Solving for Uz, Initial residual = 0.000683560042208, Final residual = 6.20293712679e-05, No Iterations 4
GAMG:  Solving for p, Initial residual = 0.000341134445417, Final residual = 1.48963032578e-05, No Iterations 5
time step continuity errors : sum local = 0.000363433621643, global = 8.72694100734e-08, cumulative = 0.0455808073393
ExecutionTime = 6.64 s  ClockTime = 7 s

Time = 114

smoothSolver:  Solving for Ux, Initial residual = 0.0021641599959, Final residual = 0.000165846988437, No Iterations 4
smoothSolver:  Solving for Uy, Initial residual = 0.00223116026179, Final residual = 0.000183847629619, No Iterations 4
smoothSolver:  Solving for Uz, Initial residual = 0.000675678611035, Final residual = 6.1777858315e-05, No Iterations 4
GAMG:  Solving for p, Initial residual = 0.000338829229333, Final residual = 1.00475685274e-05, No Iterations 7
time step continuity errors : sum local = 0.000243698307046, global = 2.39204549745e-07, cumulative = 0.0455810465438
ExecutionTime = 6.7 s  ClockTime = 7 s

Time = 115

smoothSolver:  Solving for Ux, Initial residual = 0.00196121771283, Final residual = 0.000164223477541, No Iterations 4
smoothSolver:  Solving for Uy, Initial residual = 0.00218659394051, Final residual = 0.000180869419125, No Iterations 4
smoothSolver:  Solving for Uz, Initial residual = 0.000671898026175, Final residual = 6.10514731325e-05, No Iterations 4
GAMG:  Solving for p, Initial residual = 0.000340690763537, Final residual = 1.20555899644e-05, No Iterations 6
time step continuity errors : sum local = 0.000290669560457, global = 3.93025821521e-07, cumulative = 0.0455814395697
ExecutionTime = 6.76 s  ClockTime = 7 s

Time = 116

smoothSolver:  Solving for Ux, Initial residual = 0.00194567685838, Final residual = 0.000160808777887, No Iterations 4
smoothSolver:  Solving for Uy, Initial residual = 0.00214723825312, Final residual = 0.000177187571591, No Iterations 4
smoothSolver:  Solving for Uz, Initial residual = 0.000666558168621, Final residual = 6.02613710759e-05, No Iterations 4
GAMG:  Solving for p, Initial residual = 0.000339962548714, Final residual = 1.43504795037e-05, No Iterations 6
time step continuity errors : sum local = 0.000343848337877, global = 9.72560604118e-07, cumulative = 0.0455824121303
ExecutionTime = 6.82 s  ClockTime = 7 s

Time = 117

smoothSolver:  Solving for Ux, Initial residual = 0.00191533798777, Final residual = 0.000156986805772, No Iterations 4
smoothSolver:  Solving for Uy, Initial residual = 0.0021084618922, Final residual = 0.000173093323663, No Iterations 4
smoothSolver:  Solving for Uz, Initial residual = 0.000660287912781, Final residual = 5.96125859829e-05, No Iterations 4
GAMG:  Solving for p, Initial residual = 0.000353568839177, Final residual = 1.4757425167e-05, No Iterations 7
time step continuity errors : sum local = 0.000351281187444, global = 8.58984403312e-07, cumulative = 0.0455832711147
ExecutionTime = 6.88 s  ClockTime = 7 s

Time = 118

smoothSolver:  Solving for Ux, Initial residual = 0.00188706022682, Final residual = 0.000153016878281, No Iterations 4
smoothSolver:  Solving for Uy, Initial residual = 0.00207103217614, Final residual = 0.000169326867591, No Iterations 4
smoothSolver:  Solving for Uz, Initial residual = 0.0006529249682, Final residual = 5.91235534509e-05, No Iterations 4
GAMG:  Solving for p, Initial residual = 0.000362728063897, Final residual = 1.01007789011e-05, No Iterations 7
time step continuity errors : sum local = 0.000238812504358, global = 7.42868134385e-07, cumulative = 0.0455840139828
ExecutionTime = 6.93 s  ClockTime = 7 s

Time = 119

smoothSolver:  Solving for Ux, Initial residual = 0.00180632005188, Final residual = 0.000150115763392, No Iterations 4
smoothSolver:  Solving for Uy, Initial residual = 0.00204352213101, Final residual = 0.000168029097987, No Iterations 4
smoothSolver:  Solving for Uz, Initial residual = 0.000646848803346, Final residual = 5.85230754603e-05, No Iterations 4
GAMG:  Solving for p, Initial residual = 0.000347831059679, Final residual = 9.2374328655e-06, No Iterations 6
time step continuity errors : sum local = 0.000217010014245, global = 1.19344698247e-07, cumulative = 0.0455841333275
ExecutionTime = 6.99 s  ClockTime = 7 s

Time = 120

smoothSolver:  Solving for Ux, Initial residual = 0.00174954418121, Final residual = 0.000147660815428, No Iterations 4
smoothSolver:  Solving for Uy, Initial residual = 0.00201513376487, Final residual = 0.000166120718455, No Iterations 4
smoothSolver:  Solving for Uz, Initial residual = 0.000642078871105, Final residual = 5.78770620075e-05, No Iterations 4
GAMG:  Solving for p, Initial residual = 0.000333609083162, Final residual = 1.34436524416e-05, No Iterations 6
time step continuity errors : sum local = 0.0003138586343, global = 1.2377667408e-08, cumulative = 0.0455841457052
ExecutionTime = 7.05 s  ClockTime = 7 s

Time = 121

smoothSolver:  Solving for Ux, Initial residual = 0.00173151063956, Final residual = 0.000145055886232, No Iterations 4
smoothSolver:  Solving for Uy, Initial residual = 0.002007657354, Final residual = 0.000164918921342, No Iterations 4
smoothSolver:  Solving for Uz, Initial residual = 0.00063769532271, Final residual = 5.73980809507e-05, No Iterations 4
GAMG:  Solving for p, Initial residual = 0.000326263722073, Final residual = 9.87722025342e-06, No Iterations 7
time step continuity errors : sum local = 0.00022916627178, global = 2.87942190939e-07, cumulative = 0.0455844336474
ExecutionTime = 7.11 s  ClockTime = 7 s

Time = 122

smoothSolver:  Solving for Ux, Initial residual = 0.00170298584663, Final residual = 0.000142583446007, No Iterations 4
smoothSolver:  Solving for Uy, Initial residual = 0.00199879996249, Final residual = 0.0001636617421, No Iterations 4
smoothSolver:  Solving for Uz, Initial residual = 0.000633461566435, Final residual = 5.70770300223e-05, No Iterations 4
GAMG:  Solving for p, Initial residual = 0.000320492141881, Final residual = 9.03981346612e-06, No Iterations 6
time step continuity errors : sum local = 0.000208436760309, global = 9.20308309325e-08, cumulative = 0.0455845256782
ExecutionTime = 7.17 s  ClockTime = 7 s

Time = 123

smoothSolver:  Solving for Ux, Initial residual = 0.001672676287, Final residual = 0.000140498453536, No Iterations 4
smoothSolver:  Solving for Uy, Initial residual = 0.00197422215141, Final residual = 0.000162462010095, No Iterations 4
smoothSolver:  Solving for Uz, Initial residual = 0.000630182077586, Final residual = 5.6779512079e-05, No Iterations 4
[...]
smoothSolver:  Solving for Uz, Initial residual = 2.20368650276e-05, Final residual = 6.40296471758e-06, No Iterations 2
GAMG:  Solving for p, Initial residual = 3.71736329069e-06, Final residual = 6.48993639311e-07, No Iterations 4
time step continuity errors : sum local = 6.9015268243e-06, global = 1.80534961814e-08, cumulative = 0.0456102006539
ExecutionTime = 34.88 s  ClockTime = 35 s

Time = 592

smoothSolver:  Solving for Ux, Initial residual = 0.000108629401219, Final residual = 7.82489443757e-06, No Iterations 4
smoothSolver:  Solving for Uy, Initial residual = 9.01216331804e-05, Final residual = 8.013991886e-06, No Iterations 4
smoothSolver:  Solving for Uz, Initial residual = 2.19232131663e-05, Final residual = 6.36992972943e-06, No Iterations 2
GAMG:  Solving for p, Initial residual = 3.695382316e-06, Final residual = 6.44785800945e-07, No Iterations 4
time step continuity errors : sum local = 6.85496978552e-06, global = 1.79362989648e-08, cumulative = 0.0456102185902
ExecutionTime = 34.94 s  ClockTime = 35 s

Time = 593

smoothSolver:  Solving for Ux, Initial residual = 0.000108668774592, Final residual = 7.79882881467e-06, No Iterations 4
smoothSolver:  Solving for Uy, Initial residual = 8.97978914195e-05, Final residual = 7.98561508245e-06, No Iterations 4
smoothSolver:  Solving for Uz, Initial residual = 2.18102164571e-05, Final residual = 6.33708532567e-06, No Iterations 2
GAMG:  Solving for p, Initial residual = 3.67319759309e-06, Final residual = 6.40997587912e-07, No Iterations 4
time step continuity errors : sum local = 6.81290632094e-06, global = 1.79358705172e-08, cumulative = 0.0456102365261
ExecutionTime = 35 s  ClockTime = 35 s

Time = 594

smoothSolver:  Solving for Ux, Initial residual = 0.000108819596298, Final residual = 7.76601237908e-06, No Iterations 4
smoothSolver:  Solving for Uy, Initial residual = 8.94773772838e-05, Final residual = 7.95752814525e-06, No Iterations 4
smoothSolver:  Solving for Uz, Initial residual = 2.16978430252e-05, Final residual = 6.30442152792e-06, No Iterations 2
GAMG:  Solving for p, Initial residual = 3.65173773228e-06, Final residual = 6.37196677052e-07, No Iterations 4
time step continuity errors : sum local = 6.77073855121e-06, global = 1.78783967619e-08, cumulative = 0.0456102544045
ExecutionTime = 35.04 s  ClockTime = 35 s

Time = 595

smoothSolver:  Solving for Ux, Initial residual = 0.000108365802145, Final residual = 7.73411968669e-06, No Iterations 4
smoothSolver:  Solving for Uy, Initial residual = 8.91582073146e-05, Final residual = 7.92956007426e-06, No Iterations 4
smoothSolver:  Solving for Uz, Initial residual = 2.15861033177e-05, Final residual = 6.27194151831e-06, No Iterations 2
GAMG:  Solving for p, Initial residual = 3.63028685085e-06, Final residual = 6.33409039986e-07, No Iterations 4
time step continuity errors : sum local = 6.72874242669e-06, global = 1.78355850078e-08, cumulative = 0.0456102722401
ExecutionTime = 35.11 s  ClockTime = 35 s

Time = 596

smoothSolver:  Solving for Ux, Initial residual = 0.000108059117502, Final residual = 7.69746891231e-06, No Iterations 4
smoothSolver:  Solving for Uy, Initial residual = 8.8840807708e-05, Final residual = 7.90174836243e-06, No Iterations 4
smoothSolver:  Solving for Uz, Initial residual = 2.14749934614e-05, Final residual = 6.23964441408e-06, No Iterations 2
GAMG:  Solving for p, Initial residual = 3.60884323431e-06, Final residual = 6.29625664901e-07, No Iterations 4
time step continuity errors : sum local = 6.68682178773e-06, global = 1.77885959013e-08, cumulative = 0.0456102900287
ExecutionTime = 35.17 s  ClockTime = 35 s

Time = 597

smoothSolver:  Solving for Ux, Initial residual = 0.000107061728142, Final residual = 7.65821876635e-06, No Iterations 4
smoothSolver:  Solving for Uy, Initial residual = 8.85250601594e-05, Final residual = 7.8740726888e-06, No Iterations 4
smoothSolver:  Solving for Uz, Initial residual = 2.13645095954e-05, Final residual = 6.20752921791e-06, No Iterations 2
GAMG:  Solving for p, Initial residual = 3.58737220312e-06, Final residual = 6.25859284851e-07, No Iterations 4
time step continuity errors : sum local = 6.64511154788e-06, global = 1.77392648864e-08, cumulative = 0.0456103077679
ExecutionTime = 35.23 s  ClockTime = 35 s

Time = 598

smoothSolver:  Solving for Ux, Initial residual = 0.000107615539484, Final residual = 7.63161205458e-06, No Iterations 4
smoothSolver:  Solving for Uy, Initial residual = 8.82110371569e-05, Final residual = 7.84653516199e-06, No Iterations 4
smoothSolver:  Solving for Uz, Initial residual = 2.12546478343e-05, Final residual = 6.17559477608e-06, No Iterations 2
GAMG:  Solving for p, Initial residual = 3.56599162161e-06, Final residual = 6.22117821056e-07, No Iterations 4
time step continuity errors : sum local = 6.60369566797e-06, global = 1.76866508144e-08, cumulative = 0.0456103254546
ExecutionTime = 35.29 s  ClockTime = 35 s

Time = 599

smoothSolver:  Solving for Ux, Initial residual = 0.000107387643722, Final residual = 7.60507730793e-06, No Iterations 4
smoothSolver:  Solving for Uy, Initial residual = 8.78987225388e-05, Final residual = 7.81913381574e-06, No Iterations 4
smoothSolver:  Solving for Uz, Initial residual = 2.11454053692e-05, Final residual = 6.14384057824e-06, No Iterations 2
GAMG:  Solving for p, Initial residual = 3.54478815108e-06, Final residual = 6.18404744037e-07, No Iterations 4
time step continuity errors : sum local = 6.56261038986e-06, global = 1.76309970583e-08, cumulative = 0.0456103430856
ExecutionTime = 35.36 s  ClockTime = 35 s

Time = 600

smoothSolver:  Solving for Ux, Initial residual = 0.000106684650547, Final residual = 7.5744322302e-06, No Iterations 4
smoothSolver:  Solving for Uy, Initial residual = 8.7588105155e-05, Final residual = 7.79187065228e-06, No Iterations 4
smoothSolver:  Solving for Uz, Initial residual = 2.10367785189e-05, Final residual = 6.11226539608e-06, No Iterations 2
GAMG:  Solving for p, Initial residual = 3.52378009693e-06, Final residual = 6.14720321764e-07, No Iterations 4
time step continuity errors : sum local = 6.52185816757e-06, global = 1.757276912e-08, cumulative = 0.0456103606584
ExecutionTime = 35.41 s  ClockTime = 36 s

    writing object shearStress
Time = 601

smoothSolver:  Solving for Ux, Initial residual = 0.000104961961607, Final residual = 7.54469732013e-06, No Iterations 4
smoothSolver:  Solving for Uy, Initial residual = 8.72792102274e-05, Final residual = 7.76474710391e-06, No Iterations 4
smoothSolver:  Solving for Uz, Initial residual = 2.09287632046e-05, Final residual = 6.08086662539e-06, No Iterations 2
GAMG:  Solving for p, Initial residual = 3.50270054189e-06, Final residual = 6.11111779958e-07, No Iterations 4
time step continuity errors : sum local = 6.4819393769e-06, global = 1.75141083974e-08, cumulative = 0.0456103781725
ExecutionTime = 35.5 s  ClockTime = 36 s

Time = 602

smoothSolver:  Solving for Ux, Initial residual = 0.000106051619487, Final residual = 7.50671333482e-06, No Iterations 4
smoothSolver:  Solving for Uy, Initial residual = 8.69721536103e-05, Final residual = 7.73776679156e-06, No Iterations 4
smoothSolver:  Solving for Uz, Initial residual = 2.08213523765e-05, Final residual = 6.04964434815e-06, No Iterations 2
GAMG:  Solving for p, Initial residual = 3.4818118433e-06, Final residual = 6.07464617575e-07, No Iterations 4
time step continuity errors : sum local = 6.44163914547e-06, global = 1.74537541957e-08, cumulative = 0.0456103956262
ExecutionTime = 35.55 s  ClockTime = 36 s

Time = 603

smoothSolver:  Solving for Ux, Initial residual = 0.000105744939246, Final residual = 7.47699865696e-06, No Iterations 4
smoothSolver:  Solving for Uy, Initial residual = 8.66669853188e-05, Final residual = 7.71093446006e-06, No Iterations 4
smoothSolver:  Solving for Uz, Initial residual = 2.07145443931e-05, Final residual = 6.01859748911e-06, No Iterations 2
GAMG:  Solving for p, Initial residual = 3.461224791e-06, Final residual = 6.0361078024e-07, No Iterations 4
time step continuity errors : sum local = 6.39917587103e-06, global = 1.69061274958e-08, cumulative = 0.0456104125323
ExecutionTime = 35.61 s  ClockTime = 36 s

Time = 604

smoothSolver:  Solving for Ux, Initial residual = 0.000105840000642, Final residual = 7.43717954124e-06, No Iterations 4
smoothSolver:  Solving for Uy, Initial residual = 8.63622538663e-05, Final residual = 7.68413033807e-06, No Iterations 4
smoothSolver:  Solving for Uz, Initial residual = 2.06083346874e-05, Final residual = 5.98772453584e-06, No Iterations 2
GAMG:  Solving for p, Initial residual = 3.4402936773e-06, Final residual = 5.99946275977e-07, No Iterations 4
time step continuity errors : sum local = 6.35874835635e-06, global = 1.67815572321e-08, cumulative = 0.0456104293139
ExecutionTime = 35.66 s  ClockTime = 36 s

Time = 605

smoothSolver:  Solving for Ux, Initial residual = 0.000104826822054, Final residual = 7.40923036038e-06, No Iterations 4
smoothSolver:  Solving for Uy, Initial residual = 8.60607589177e-05, Final residual = 7.6576088268e-06, No Iterations 4
smoothSolver:  Solving for Uz, Initial residual = 2.05027219194e-05, Final residual = 5.95702458296e-06, No Iterations 2
GAMG:  Solving for p, Initial residual = 3.42117730698e-06, Final residual = 5.96375693937e-07, No Iterations 4
time step continuity errors : sum local = 6.31934360326e-06, global = 1.67089223614e-08, cumulative = 0.0456104460228
ExecutionTime = 35.72 s  ClockTime = 36 s

Time = 606

smoothSolver:  Solving for Ux, Initial residual = 0.000104304858204, Final residual = 7.3756145717e-06, No Iterations 4
smoothSolver:  Solving for Uy, Initial residual = 8.57607432862e-05, Final residual = 7.63120888854e-06, No Iterations 4
smoothSolver:  Solving for Uz, Initial residual = 2.03977038259e-05, Final residual = 5.92649764295e-06, No Iterations 2
GAMG:  Solving for p, Initial residual = 3.40197079303e-06, Final residual = 5.92851528966e-07, No Iterations 4
time step continuity errors : sum local = 6.28045763258e-06, global = 1.66374569771e-08, cumulative = 0.0456104626603
ExecutionTime = 35.77 s  ClockTime = 36 s

Time = 607

smoothSolver:  Solving for Ux, Initial residual = 0.000103769471763, Final residual = 7.34727948225e-06, No Iterations 4
smoothSolver:  Solving for Uy, Initial residual = 8.54619680155e-05, Final residual = 7.60490996048e-06, No Iterations 4
smoothSolver:  Solving for Uz, Initial residual = 2.02932759407e-05, Final residual = 5.89614237472e-06, No Iterations 2
GAMG:  Solving for p, Initial residual = 3.38223844325e-06, Final residual = 5.89337001885e-07, No Iterations 4
time step continuity errors : sum local = 6.24170021374e-06, global = 1.65620424479e-08, cumulative = 0.0456104792223
ExecutionTime = 35.83 s  ClockTime = 36 s

Time = 608

smoothSolver:  Solving for Ux, Initial residual = 0.00010368648889, Final residual = 7.31359263428e-06, No Iterations 4
smoothSolver:  Solving for Uy, Initial residual = 8.51644681344e-05, Final residual = 7.57871942022e-06, No Iterations 4
smoothSolver:  Solving for Uz, Initial residual = 2.01894065715e-05, Final residual = 5.86595551008e-06, No Iterations 2
GAMG:  Solving for p, Initial residual = 3.36231846237e-06, Final residual = 5.85845718199e-07, No Iterations 4
time step continuity errors : sum local = 6.2032153989e-06, global = 1.64821613196e-08, cumulative = 0.0456104957045
ExecutionTime = 35.89 s  ClockTime = 36 s

Time = 609

smoothSolver:  Solving for Ux, Initial residual = 0.000103945272314, Final residual = 7.28400943314e-06, No Iterations 4
smoothSolver:  Solving for Uy, Initial residual = 8.48683946616e-05, Final residual = 7.55265183355e-06, No Iterations 4
smoothSolver:  Solving for Uz, Initial residual = 2.00861251308e-05, Final residual = 5.8359358195e-06, No Iterations 2
GAMG:  Solving for p, Initial residual = 3.34244718041e-06, Final residual = 5.82428884066e-07, No Iterations 4
time step continuity errors : sum local = 6.16554467735e-06, global = 1.64016083667e-08, cumulative = 0.0456105121061
ExecutionTime = 35.93 s  ClockTime = 36 s

Time = 610

smoothSolver:  Solving for Ux, Initial residual = 0.000103730247952, Final residual = 7.25397417988e-06, No Iterations 4
smoothSolver:  Solving for Uy, Initial residual = 8.4573848213e-05, Final residual = 7.52671324934e-06, No Iterations 4
smoothSolver:  Solving for Uz, Initial residual = 1.9983435589e-05, Final residual = 5.80608566394e-06, No Iterations 2
GAMG:  Solving for p, Initial residual = 3.32350448414e-06, Final residual = 5.79059047203e-07, No Iterations 4
time step continuity errors : sum local = 6.12839682132e-06, global = 1.63280877852e-08, cumulative = 0.0456105284342
ExecutionTime = 36 s  ClockTime = 36 s

Time = 611

smoothSolver:  Solving for Ux, Initial residual = 0.00010224108185, Final residual = 7.21370337294e-06, No Iterations 4
smoothSolver:  Solving for Uy, Initial residual = 8.42808681917e-05, Final residual = 7.50090914401e-06, No Iterations 4
smoothSolver:  Solving for Uz, Initial residual = 1.98813182359e-05, Final residual = 5.7764034567e-06, No Iterations 2
GAMG:  Solving for p, Initial residual = 3.30526811502e-06, Final residual = 5.75695783744e-07, No Iterations 4
time step continuity errors : sum local = 6.09134358124e-06, global = 1.62597049327e-08, cumulative = 0.0456105446939
ExecutionTime = 36.07 s  ClockTime = 36 s

Time = 612

smoothSolver:  Solving for Ux, Initial residual = 0.000102581386703, Final residual = 7.18059153728e-06, No Iterations 4
smoothSolver:  Solving for Uy, Initial residual = 8.3989414495e-05, Final residual = 7.4752363143e-06, No Iterations 4
smoothSolver:  Solving for Uz, Initial residual = 1.9779773135e-05, Final residual = 5.74688743341e-06, No Iterations 2
GAMG:  Solving for p, Initial residual = 3.28711053829e-06, Final residual = 5.72327199661e-07, No Iterations 4
time step continuity errors : sum local = 6.05425893012e-06, global = 1.61916882806e-08, cumulative = 0.0456105608856
ExecutionTime = 36.13 s  ClockTime = 36 s

Time = 613

smoothSolver:  Solving for Ux, Initial residual = 0.000102334190983, Final residual = 7.16408622306e-06, No Iterations 4
smoothSolver:  Solving for Uy, Initial residual = 8.36994486874e-05, Final residual = 7.44969234245e-06, No Iterations 4
smoothSolver:  Solving for Uz, Initial residual = 1.96787995406e-05, Final residual = 5.71753645929e-06, No Iterations 2
GAMG:  Solving for p, Initial residual = 3.26878589993e-06, Final residual = 5.68952481236e-07, No Iterations 4
time step continuity errors : sum local = 6.0171339828e-06, global = 1.61213992668e-08, cumulative = 0.045610577007
ExecutionTime = 36.18 s  ClockTime = 36 s

Time = 614

smoothSolver:  Solving for Ux, Initial residual = 0.000102224043662, Final residual = 7.13122937059e-06, No Iterations 4
smoothSolver:  Solving for Uy, Initial residual = 8.34109261137e-05, Final residual = 7.42427319875e-06, No Iterations 4
smoothSolver:  Solving for Uz, Initial residual = 1.95783926463e-05, Final residual = 5.68834944349e-06, No Iterations 2
GAMG:  Solving for p, Initial residual = 3.25034309396e-06, Final residual = 5.65581457313e-07, No Iterations 4
time step continuity errors : sum local = 5.98007264898e-06, global = 1.60483211106e-08, cumulative = 0.0456105930553
ExecutionTime = 36.25 s  ClockTime = 36 s

Time = 615

smoothSolver:  Solving for Ux, Initial residual = 0.000102132220841, Final residual = 7.09391137346e-06, No Iterations 4
smoothSolver:  Solving for Uy, Initial residual = 8.31238629889e-05, Final residual = 7.39898053895e-06, No Iterations 4
smoothSolver:  Solving for Uz, Initial residual = 1.94785471401e-05, Final residual = 5.65932577506e-06, No Iterations 2
GAMG:  Solving for p, Initial residual = 3.23187371336e-06, Final residual = 5.62223141327e-07, No Iterations 4
time step continuity errors : sum local = 5.94316986471e-06, global = 1.59734318716e-08, cumulative = 0.0456106090287
ExecutionTime = 36.31 s  ClockTime = 36 s

Time = 616

smoothSolver:  Solving for Ux, Initial residual = 0.000101363460435, Final residual = 7.06318474297e-06, No Iterations 4
smoothSolver:  Solving for Uy, Initial residual = 8.28382606551e-05, Final residual = 7.3738205477e-06, No Iterations 4
smoothSolver:  Solving for Uz, Initial residual = 1.93792410897e-05, Final residual = 5.63046272544e-06, No Iterations 2
GAMG:  Solving for p, Initial residual = 3.21297468091e-06, Final residual = 5.58892056853e-07, No Iterations 4
time step continuity errors : sum local = 5.90657912726e-06, global = 1.58994319853e-08, cumulative = 0.0456106249282
ExecutionTime = 36.37 s  ClockTime = 36 s

Time = 617

smoothSolver:  Solving for Ux, Initial residual = 0.000101073788638, Final residual = 7.03438452726e-06, No Iterations 4
smoothSolver:  Solving for Uy, Initial residual = 8.25541040664e-05, Final residual = 7.34878252661e-06, No Iterations 4
smoothSolver:  Solving for Uz, Initial residual = 1.92805085942e-05, Final residual = 5.60175999782e-06, No Iterations 2
GAMG:  Solving for p, Initial residual = 3.19392992144e-06, Final residual = 5.55580546442e-07, No Iterations 4
time step continuity errors : sum local = 5.87021894339e-06, global = 1.58283472987e-08, cumulative = 0.0456106407565
ExecutionTime = 36.42 s  ClockTime = 37 s

Time = 618

smoothSolver:  Solving for Ux, Initial residual = 0.000100679658558, Final residual = 6.99538994117e-06, No Iterations 4
smoothSolver:  Solving for Uy, Initial residual = 8.22713736423e-05, Final residual = 7.32386396517e-06, No Iterations 4
smoothSolver:  Solving for Uz, Initial residual = 1.91823194683e-05, Final residual = 5.57321758891e-06, No Iterations 2
GAMG:  Solving for p, Initial residual = 3.17521531288e-06, Final residual = 5.52275203705e-07, No Iterations 4
time step continuity errors : sum local = 5.83394742872e-06, global = 1.57558752085e-08, cumulative = 0.0456106565124
ExecutionTime = 36.48 s  ClockTime = 37 s

Time = 619

smoothSolver:  Solving for Ux, Initial residual = 0.000100179525865, Final residual = 6.96419730592e-06, No Iterations 4
smoothSolver:  Solving for Uy, Initial residual = 8.19900548175e-05, Final residual = 7.29906294867e-06, No Iterations 4
smoothSolver:  Solving for Uz, Initial residual = 1.90846754331e-05, Final residual = 5.54483415413e-06, No Iterations 2
GAMG:  Solving for p, Initial residual = 3.15686299369e-06, Final residual = 5.48973514197e-07, No Iterations 4
time step continuity errors : sum local = 5.79773786866e-06, global = 1.56813107353e-08, cumulative = 0.0456106721937
ExecutionTime = 36.54 s  ClockTime = 37 s

Time = 620

smoothSolver:  Solving for Ux, Initial residual = 0.000100521251736, Final residual = 6.94794739601e-06, No Iterations 4
smoothSolver:  Solving for Uy, Initial residual = 8.17101279699e-05, Final residual = 7.27437706317e-06, No Iterations 4
smoothSolver:  Solving for Uz, Initial residual = 1.89875759363e-05, Final residual = 5.51660886438e-06, No Iterations 2
GAMG:  Solving for p, Initial residual = 3.13866425796e-06, Final residual = 5.45685552801e-07, No Iterations 4
time step continuity errors : sum local = 5.7616962231e-06, global = 1.56053242845e-08, cumulative = 0.045610687799
ExecutionTime = 36.59 s  ClockTime = 37 s

Time = 621

smoothSolver:  Solving for Ux, Initial residual = 9.96329867607e-05, Final residual = 6.91707848661e-06, No Iterations 4
smoothSolver:  Solving for Uy, Initial residual = 8.14315978075e-05, Final residual = 7.24980626158e-06, No Iterations 4
smoothSolver:  Solving for Uz, Initial residual = 1.88910176687e-05, Final residual = 5.48854086742e-06, No Iterations 2
GAMG:  Solving for p, Initial residual = 3.12001385904e-06, Final residual = 5.42424094405e-07, No Iterations 4
time step continuity errors : sum local = 5.72595728353e-06, global = 1.55285510326e-08, cumulative = 0.0456107033276
ExecutionTime = 36.65 s  ClockTime = 37 s


SIMPLE solution converged in 621 iterations

End

Finalising parallel run
