/*---------------------------------------------------------------------------*\
  =========                 |
  \\      /  F ield         | OpenFOAM: The Open Source CFD Toolbox
   \\    /   O peration     | Website:  https://openfoam.org
    \\  /    A nd           | Version:  9
     \\/     M anipulation  |
\*---------------------------------------------------------------------------*/
Build  : 9-b456138dc4bc
Exec   : simpleFoam -parallel
Date   : Nov 14 2022
Time   : 17:42:43
Host   : "KORIN-LAB"
PID    : 3363
I/O    : uncollated
Case   : /home/colin/openfoam_projects/Power-Law/wedge_needles/temperature/55_temp/90_needle_layer
nProcs : 6
Slaves : 
5
(
"KORIN-LAB.3364"
"KORIN-LAB.3365"
"KORIN-LAB.3366"
"KORIN-LAB.3367"
"KORIN-LAB.3368"
)

Pstream initialised with:
    floatTransfer      : 0
    nProcsSimpleSum    : 0
    commsType          : nonBlocking
    polling iterations : 0
sigFpe : Enabling floating point exception trapping (FOAM_SIGFPE).
fileModificationChecking : Monitoring run-time modified files using timeStampMaster (fileModificationSkew 10)
allowSystemOperations : Allowing user-supplied system call operations

// * * * * * * * * * * * * * * * * * * * * * * * * * * * * * * * * * * * * * //
Create time

Create mesh for time = 0


SIMPLE: Convergence criteria found
        p: tolerance 0.001
        U: tolerance 0.0001
        "(k|epsilon|omega|f|v2)": tolerance 0.0001

Reading field p

Reading field U

Reading/calculating face flux field phi

Selecting incompressible transport model powerLaw
Selecting turbulence model type laminar
Selecting laminar stress model Stokes
No MRF models present

No fvModels present
No fvConstraints present

Starting time loop

wallShearStress wallShearStress:
    processing all wall patches

Time = 1

smoothSolver:  Solving for Ux, Initial residual = 0.509202476692, Final residual = 0.0411450012434, No Iterations 2
smoothSolver:  Solving for Uy, Initial residual = 0.99999999999, Final residual = 0.0572562251188, No Iterations 2
smoothSolver:  Solving for Uz, Initial residual = 1, Final residual = 0.0816529803376, No Iterations 2
GAMG:  Solving for p, Initial residual = 0.999999999986, Final residual = 0.0422122101777, No Iterations 32
time step continuity errors : sum local = 0.021927010763, global = -0.000279621415262, cumulative = -0.000279621415262
ExecutionTime = 0.16 s  ClockTime = 1 s

Time = 2

smoothSolver:  Solving for Ux, Initial residual = 0.452805603341, Final residual = 0.0320044199429, No Iterations 3
smoothSolver:  Solving for Uy, Initial residual = 0.715214359569, Final residual = 0.0622965592756, No Iterations 4
smoothSolver:  Solving for Uz, Initial residual = 0.526815011245, Final residual = 0.0447019351368, No Iterations 4
GAMG:  Solving for p, Initial residual = 0.00671215784393, Final residual = 0.000253774382231, No Iterations 12
time step continuity errors : sum local = 8.31558032636, global = 0.0989628894372, cumulative = 0.0986832680219
ExecutionTime = 0.23 s  ClockTime = 1 s

Time = 3

smoothSolver:  Solving for Ux, Initial residual = 0.389281067468, Final residual = 0.0373811819629, No Iterations 2
smoothSolver:  Solving for Uy, Initial residual = 0.0801901471108, Final residual = 0.00674575475302, No Iterations 4
smoothSolver:  Solving for Uz, Initial residual = 0.0504705064453, Final residual = 0.00427349722166, No Iterations 4
GAMG:  Solving for p, Initial residual = 0.00708691767589, Final residual = 0.00031677932489, No Iterations 14
time step continuity errors : sum local = 4.53683019243, global = 0.0160174640311, cumulative = 0.114700732053
ExecutionTime = 0.3 s  ClockTime = 1 s

Time = 4

smoothSolver:  Solving for Ux, Initial residual = 0.0271700317389, Final residual = 0.00165620815543, No Iterations 3
smoothSolver:  Solving for Uy, Initial residual = 0.0426707986785, Final residual = 0.00363466884755, No Iterations 4
smoothSolver:  Solving for Uz, Initial residual = 0.00857297684503, Final residual = 0.00064030607852, No Iterations 4
GAMG:  Solving for p, Initial residual = 0.404011884295, Final residual = 0.014158211273, No Iterations 8
time step continuity errors : sum local = 6.54511091451, global = 0.0980004043204, cumulative = 0.212701136373
ExecutionTime = 0.36 s  ClockTime = 1 s

Time = 5

smoothSolver:  Solving for Ux, Initial residual = 0.00696598437634, Final residual = 0.000561392458623, No Iterations 3
smoothSolver:  Solving for Uy, Initial residual = 0.0137584731553, Final residual = 0.00105863229376, No Iterations 4
smoothSolver:  Solving for Uz, Initial residual = 0.0290209594668, Final residual = 0.00241699124768, No Iterations 4
GAMG:  Solving for p, Initial residual = 0.0275759320501, Final residual = 0.000679565346435, No Iterations 7
time step continuity errors : sum local = 2.23974567521, global = -0.0300683621781, cumulative = 0.182632774195
ExecutionTime = 0.43 s  ClockTime = 1 s

Time = 6

smoothSolver:  Solving for Ux, Initial residual = 0.00378905244026, Final residual = 0.000209088889849, No Iterations 3
smoothSolver:  Solving for Uy, Initial residual = 0.108555942477, Final residual = 0.00923923335159, No Iterations 4
smoothSolver:  Solving for Uz, Initial residual = 0.0583557640132, Final residual = 0.00494008475894, No Iterations 4
GAMG:  Solving for p, Initial residual = 0.0123437813758, Final residual = 0.000330498436379, No Iterations 11
time step continuity errors : sum local = 1.05597097802, global = -0.0131571126731, cumulative = 0.169475661522
ExecutionTime = 0.5 s  ClockTime = 1 s

Time = 7

smoothSolver:  Solving for Ux, Initial residual = 0.00358256624654, Final residual = 0.000176556283771, No Iterations 3
smoothSolver:  Solving for Uy, Initial residual = 0.178412917748, Final residual = 0.0153454644203, No Iterations 4
smoothSolver:  Solving for Uz, Initial residual = 0.101984999473, Final residual = 0.00852170046319, No Iterations 4
GAMG:  Solving for p, Initial residual = 0.0434917269537, Final residual = 0.00159894336903, No Iterations 8
time step continuity errors : sum local = 2.70200103521, global = -0.0311036195398, cumulative = 0.138372041982
ExecutionTime = 0.57 s  ClockTime = 1 s

Time = 8

smoothSolver:  Solving for Ux, Initial residual = 0.00327275161367, Final residual = 0.000186300334928, No Iterations 3
smoothSolver:  Solving for Uy, Initial residual = 0.045417447513, Final residual = 0.00383235348471, No Iterations 4
smoothSolver:  Solving for Uz, Initial residual = 0.0997763950766, Final residual = 0.00801417615803, No Iterations 4
GAMG:  Solving for p, Initial residual = 0.107598370505, Final residual = 0.00429030693971, No Iterations 8
time step continuity errors : sum local = 2.42652583071, global = -0.0103256800282, cumulative = 0.128046361954
ExecutionTime = 0.64 s  ClockTime = 1 s

Time = 9

smoothSolver:  Solving for Ux, Initial residual = 0.00255710476459, Final residual = 0.000174719911587, No Iterations 3
smoothSolver:  Solving for Uy, Initial residual = 0.0220844855582, Final residual = 0.00177861607241, No Iterations 4
smoothSolver:  Solving for Uz, Initial residual = 0.0441175334879, Final residual = 0.00361360287018, No Iterations 4
GAMG:  Solving for p, Initial residual = 0.0612488282162, Final residual = 0.00237992766778, No Iterations 6
time step continuity errors : sum local = 1.29104348909, global = 0.0103212895186, cumulative = 0.138367651473
ExecutionTime = 0.71 s  ClockTime = 1 s

Time = 10

smoothSolver:  Solving for Ux, Initial residual = 0.00159370215776, Final residual = 0.000145399311951, No Iterations 3
smoothSolver:  Solving for Uy, Initial residual = 0.0636722293488, Final residual = 0.0054414302245, No Iterations 4
smoothSolver:  Solving for Uz, Initial residual = 0.028583742152, Final residual = 0.00244159153212, No Iterations 4
GAMG:  Solving for p, Initial residual = 0.0203947853675, Final residual = 0.000686159693522, No Iterations 6
time step continuity errors : sum local = 0.552329590342, global = 0.0164772225369, cumulative = 0.15484487401
ExecutionTime = 0.77 s  ClockTime = 1 s

Time = 11

smoothSolver:  Solving for Ux, Initial residual = 0.00119417769615, Final residual = 0.000119108227096, No Iterations 3
smoothSolver:  Solving for Uy, Initial residual = 0.328143006813, Final residual = 0.0284797081755, No Iterations 4
smoothSolver:  Solving for Uz, Initial residual = 0.0177041344531, Final residual = 0.00152357356184, No Iterations 4
GAMG:  Solving for p, Initial residual = 0.027294499844, Final residual = 0.00134090931616, No Iterations 7
time step continuity errors : sum local = 0.912593925307, global = 0.00677454249216, cumulative = 0.161619416502
ExecutionTime = 0.84 s  ClockTime = 1 s

Time = 12

smoothSolver:  Solving for Ux, Initial residual = 0.000975276758655, Final residual = 5.63496507648e-05, No Iterations 4
smoothSolver:  Solving for Uy, Initial residual = 0.0767708086703, Final residual = 0.00655153329403, No Iterations 4
smoothSolver:  Solving for Uz, Initial residual = 0.0104251829218, Final residual = 0.00089641049034, No Iterations 4
GAMG:  Solving for p, Initial residual = 0.0500280085693, Final residual = 0.00133342752676, No Iterations 8
time step continuity errors : sum local = 0.471398337328, global = 0.00114588472883, cumulative = 0.162765301231
ExecutionTime = 0.91 s  ClockTime = 1 s

Time = 13

smoothSolver:  Solving for Ux, Initial residual = 0.000806991387411, Final residual = 5.15069452321e-05, No Iterations 4
smoothSolver:  Solving for Uy, Initial residual = 0.0338109718338, Final residual = 0.00278912584838, No Iterations 4
smoothSolver:  Solving for Uz, Initial residual = 0.00582143721463, Final residual = 0.000489448197015, No Iterations 4
GAMG:  Solving for p, Initial residual = 0.23724745482, Final residual = 0.0104903491655, No Iterations 6
time step continuity errors : sum local = 0.581750494834, global = -0.000739809460414, cumulative = 0.16202549177
ExecutionTime = 0.98 s  ClockTime = 1 s

Time = 14

smoothSolver:  Solving for Ux, Initial residual = 0.000728954126725, Final residual = 4.61859875707e-05, No Iterations 4
smoothSolver:  Solving for Uy, Initial residual = 0.0445245108216, Final residual = 0.0036495775726, No Iterations 4
smoothSolver:  Solving for Uz, Initial residual = 0.00472543380582, Final residual = 0.000388125176423, No Iterations 4
GAMG:  Solving for p, Initial residual = 0.0644116166734, Final residual = 0.00179056257463, No Iterations 6
time step continuity errors : sum local = 0.233436904686, global = -0.00300612910844, cumulative = 0.159019362662
ExecutionTime = 1.04 s  ClockTime = 1 s

Time = 15

smoothSolver:  Solving for Ux, Initial residual = 0.000730641395069, Final residual = 4.3871346108e-05, No Iterations 4
smoothSolver:  Solving for Uy, Initial residual = 0.150154899086, Final residual = 0.0126672323968, No Iterations 4
smoothSolver:  Solving for Uz, Initial residual = 0.00485837008537, Final residual = 0.000406034630923, No Iterations 4
GAMG:  Solving for p, Initial residual = 0.0509181983505, Final residual = 0.00180233718033, No Iterations 6
time step continuity errors : sum local = 0.240160955007, global = -0.00252874440916, cumulative = 0.156490618253
ExecutionTime = 1.11 s  ClockTime = 2 s

Time = 16

smoothSolver:  Solving for Ux, Initial residual = 0.000724087894787, Final residual = 4.29122391453e-05, No Iterations 4
smoothSolver:  Solving for Uy, Initial residual = 0.0725607744074, Final residual = 0.00608072795998, No Iterations 4
smoothSolver:  Solving for Uz, Initial residual = 0.00442059397678, Final residual = 0.000365666787016, No Iterations 4
GAMG:  Solving for p, Initial residual = 0.0778303804161, Final residual = 0.0022454642889, No Iterations 8
time step continuity errors : sum local = 0.188453315021, global = -0.000546571333164, cumulative = 0.15594404692
ExecutionTime = 1.18 s  ClockTime = 2 s

Time = 17

smoothSolver:  Solving for Ux, Initial residual = 0.000678083760109, Final residual = 4.15290114258e-05, No Iterations 4
smoothSolver:  Solving for Uy, Initial residual = 0.0346533375563, Final residual = 0.00280990516479, No Iterations 4
smoothSolver:  Solving for Uz, Initial residual = 0.00348692442125, Final residual = 0.000287684946862, No Iterations 4
GAMG:  Solving for p, Initial residual = 0.199679062791, Final residual = 0.00692941418279, No Iterations 6
time step continuity errors : sum local = 0.203007654681, global = 0.00165937551952, cumulative = 0.157603422439
ExecutionTime = 1.24 s  ClockTime = 2 s

Time = 18

smoothSolver:  Solving for Ux, Initial residual = 0.00060734681776, Final residual = 3.98162513743e-05, No Iterations 4
smoothSolver:  Solving for Uy, Initial residual = 0.0263589368514, Final residual = 0.00208571205163, No Iterations 4
smoothSolver:  Solving for Uz, Initial residual = 0.00308536045743, Final residual = 0.000255403506096, No Iterations 4
GAMG:  Solving for p, Initial residual = 0.0629713752997, Final residual = 0.00160393507443, No Iterations 6
time step continuity errors : sum local = 0.110638619795, global = 0.000945057877661, cumulative = 0.158548480317
ExecutionTime = 1.31 s  ClockTime = 2 s

Time = 19

smoothSolver:  Solving for Ux, Initial residual = 0.00054134434379, Final residual = 3.80720469674e-05, No Iterations 4
smoothSolver:  Solving for Uy, Initial residual = 0.03548386889, Final residual = 0.00295711442394, No Iterations 4
smoothSolver:  Solving for Uz, Initial residual = 0.00302325917524, Final residual = 0.000256845897475, No Iterations 4
GAMG:  Solving for p, Initial residual = 0.0391118609321, Final residual = 0.0012247690757, No Iterations 6
time step continuity errors : sum local = 0.0995321920134, global = 0.00115860550562, cumulative = 0.159707085822
ExecutionTime = 1.38 s  ClockTime = 2 s

Time = 20

smoothSolver:  Solving for Ux, Initial residual = 0.00048528673986, Final residual = 3.6121597863e-05, No Iterations 4
smoothSolver:  Solving for Uy, Initial residual = 0.0399779244063, Final residual = 0.00334240738525, No Iterations 4
smoothSolver:  Solving for Uz, Initial residual = 0.00293051708019, Final residual = 0.000251828310757, No Iterations 4
GAMG:  Solving for p, Initial residual = 0.0342537801658, Final residual = 0.00121009559781, No Iterations 6
time step continuity errors : sum local = 0.0946599522018, global = 0.00097975366829, cumulative = 0.160686839491
ExecutionTime = 1.45 s  ClockTime = 2 s

Time = 21

smoothSolver:  Solving for Ux, Initial residual = 0.000457696253693, Final residual = 3.50165965665e-05, No Iterations 4
smoothSolver:  Solving for Uy, Initial residual = 0.0362577802765, Final residual = 0.00298435198565, No Iterations 4
smoothSolver:  Solving for Uz, Initial residual = 0.00272621203238, Final residual = 0.000234883521346, No Iterations 4
GAMG:  Solving for p, Initial residual = 0.0338827599312, Final residual = 0.00124092496519, No Iterations 6
time step continuity errors : sum local = 0.0842773787162, global = 5.80375874841e-05, cumulative = 0.160744877078
ExecutionTime = 1.51 s  ClockTime = 2 s

Time = 22

smoothSolver:  Solving for Ux, Initial residual = 0.000446840269265, Final residual = 3.45282714487e-05, No Iterations 4
smoothSolver:  Solving for Uy, Initial residual = 0.0321022227806, Final residual = 0.00259870718123, No Iterations 4
smoothSolver:  Solving for Uz, Initial residual = 0.00242576610756, Final residual = 0.000208707234828, No Iterations 4
GAMG:  Solving for p, Initial residual = 0.0399353216382, Final residual = 0.00115612367362, No Iterations 6
time step continuity errors : sum local = 0.0572274637551, global = -0.00031184999667, cumulative = 0.160433027082
ExecutionTime = 1.58 s  ClockTime = 2 s

Time = 23

smoothSolver:  Solving for Ux, Initial residual = 0.000443331064158, Final residual = 3.4163113971e-05, No Iterations 4
smoothSolver:  Solving for Uy, Initial residual = 0.0272892373415, Final residual = 0.00219714025013, No Iterations 4
smoothSolver:  Solving for Uz, Initial residual = 0.00217854534957, Final residual = 0.000187444123087, No Iterations 4
GAMG:  Solving for p, Initial residual = 0.0448348365969, Final residual = 0.00209255703694, No Iterations 4
time step continuity errors : sum local = 0.0759207283225, global = -0.000127093616687, cumulative = 0.160305933465
ExecutionTime = 1.65 s  ClockTime = 2 s

Time = 24

smoothSolver:  Solving for Ux, Initial residual = 0.000436946562107, Final residual = 3.36173525472e-05, No Iterations 4
smoothSolver:  Solving for Uy, Initial residual = 0.0222039742549, Final residual = 0.00180186488992, No Iterations 4
smoothSolver:  Solving for Uz, Initial residual = 0.00200970505232, Final residual = 0.000172688174471, No Iterations 4
GAMG:  Solving for p, Initial residual = 0.041312317307, Final residual = 0.00184060637457, No Iterations 6
time step continuity errors : sum local = 0.0620475350279, global = 0.000112684643353, cumulative = 0.160418618108
ExecutionTime = 1.71 s  ClockTime = 2 s

Time = 25

smoothSolver:  Solving for Ux, Initial residual = 0.00043131578897, Final residual = 3.32806989261e-05, No Iterations 4
smoothSolver:  Solving for Uy, Initial residual = 0.0185375442474, Final residual = 0.00149370621902, No Iterations 4
smoothSolver:  Solving for Uz, Initial residual = 0.00177864463707, Final residual = 0.000151683829521, No Iterations 4
GAMG:  Solving for p, Initial residual = 0.0409494224182, Final residual = 0.00125363385114, No Iterations 7
time step continuity errors : sum local = 0.0412819778549, global = -0.000187279149245, cumulative = 0.160231338959
ExecutionTime = 1.78 s  ClockTime = 2 s

Time = 26

smoothSolver:  Solving for Ux, Initial residual = 0.000423729420772, Final residual = 3.29484510299e-05, No Iterations 4
smoothSolver:  Solving for Uy, Initial residual = 0.0150372478703, Final residual = 0.00116478822705, No Iterations 4
smoothSolver:  Solving for Uz, Initial residual = 0.00154982236646, Final residual = 0.000130494282291, No Iterations 4
GAMG:  Solving for p, Initial residual = 0.0387334714538, Final residual = 0.00103514255128, No Iterations 7
time step continuity errors : sum local = 0.0345678996582, global = -8.04904935078e-05, cumulative = 0.160150848465
ExecutionTime = 1.84 s  ClockTime = 2 s

Time = 27

smoothSolver:  Solving for Ux, Initial residual = 0.000412127686574, Final residual = 3.24160734655e-05, No Iterations 4
smoothSolver:  Solving for Uy, Initial residual = 0.0126588406537, Final residual = 0.000951265753015, No Iterations 4
smoothSolver:  Solving for Uz, Initial residual = 0.00137087824571, Final residual = 0.00011415679906, No Iterations 4
GAMG:  Solving for p, Initial residual = 0.0342299572587, Final residual = 0.00124664003652, No Iterations 5
time step continuity errors : sum local = 0.0446072688966, global = -5.74983338665e-05, cumulative = 0.160093350132
ExecutionTime = 1.91 s  ClockTime = 2 s

Time = 28

smoothSolver:  Solving for Ux, Initial residual = 0.000400634043101, Final residual = 3.19065170287e-05, No Iterations 4
smoothSolver:  Solving for Uy, Initial residual = 0.0117974144024, Final residual = 0.000887313360104, No Iterations 4
smoothSolver:  Solving for Uz, Initial residual = 0.00126928793665, Final residual = 0.000105514811108, No Iterations 4
GAMG:  Solving for p, Initial residual = 0.0296244455053, Final residual = 0.000920255270232, No Iterations 5
time step continuity errors : sum local = 0.0339163004294, global = 4.94720319308e-06, cumulative = 0.160098297335
ExecutionTime = 1.97 s  ClockTime = 2 s

Time = 29

smoothSolver:  Solving for Ux, Initial residual = 0.000390441877664, Final residual = 3.14079642799e-05, No Iterations 4
smoothSolver:  Solving for Uy, Initial residual = 0.0114091418274, Final residual = 0.000887894475555, No Iterations 4
smoothSolver:  Solving for Uz, Initial residual = 0.00130916273581, Final residual = 0.000110934395742, No Iterations 4
GAMG:  Solving for p, Initial residual = 0.0252959389943, Final residual = 0.00104132872079, No Iterations 4
time step continuity errors : sum local = 0.0388246147872, global = -5.62528825657e-05, cumulative = 0.160042044452
ExecutionTime = 2.04 s  ClockTime = 2 s

Time = 30

smoothSolver:  Solving for Ux, Initial residual = 0.000382105926212, Final residual = 3.09673335735e-05, No Iterations 4
smoothSolver:  Solving for Uy, Initial residual = 0.0113511895402, Final residual = 0.000891694322563, No Iterations 4
smoothSolver:  Solving for Uz, Initial residual = 0.00133950630252, Final residual = 0.000114509364159, No Iterations 4
GAMG:  Solving for p, Initial residual = 0.0217951826979, Final residual = 0.00090017322391, No Iterations 4
time step continuity errors : sum local = 0.0332027285306, global = 0.000128570058196, cumulative = 0.16017061451
ExecutionTime = 2.1 s  ClockTime = 3 s

Time = 31

smoothSolver:  Solving for Ux, Initial residual = 0.000375299677793, Final residual = 3.05728806187e-05, No Iterations 4
smoothSolver:  Solving for Uy, Initial residual = 0.0106059257511, Final residual = 0.000833077994011, No Iterations 4
smoothSolver:  Solving for Uz, Initial residual = 0.00133434821214, Final residual = 0.00011461668292, No Iterations 4
GAMG:  Solving for p, Initial residual = 0.0184810995879, Final residual = 0.000870738538113, No Iterations 5
time step continuity errors : sum local = 0.0317870198801, global = 5.03068564163e-05, cumulative = 0.160220921367
ExecutionTime = 2.17 s  ClockTime = 3 s

Time = 32

smoothSolver:  Solving for Ux, Initial residual = 0.000371398055783, Final residual = 3.02887932956e-05, No Iterations 4
smoothSolver:  Solving for Uy, Initial residual = 0.0100362576195, Final residual = 0.000791483931075, No Iterations 4
smoothSolver:  Solving for Uz, Initial residual = 0.00128533041342, Final residual = 0.000110545374231, No Iterations 4
GAMG:  Solving for p, Initial residual = 0.0167265652533, Final residual = 0.000763675557741, No Iterations 4
time step continuity errors : sum local = 0.0268094855864, global = 0.000140972157618, cumulative = 0.160361893524
ExecutionTime = 2.23 s  ClockTime = 3 s

Time = 33

smoothSolver:  Solving for Ux, Initial residual = 0.000368116867643, Final residual = 3.0055604867e-05, No Iterations 4
smoothSolver:  Solving for Uy, Initial residual = 0.00900933609078, Final residual = 0.000710099361365, No Iterations 4
smoothSolver:  Solving for Uz, Initial residual = 0.00120141093521, Final residual = 0.000103134081115, No Iterations 4
GAMG:  Solving for p, Initial residual = 0.0158338053151, Final residual = 0.000421790792158, No Iterations 6
time step continuity errors : sum local = 0.0143073357812, global = 3.94499306906e-05, cumulative = 0.160401343455
ExecutionTime = 2.31 s  ClockTime = 3 s

Time = 34

smoothSolver:  Solving for Ux, Initial residual = 0.000365293350741, Final residual = 2.97968991228e-05, No Iterations 4
smoothSolver:  Solving for Uy, Initial residual = 0.00826001505501, Final residual = 0.000649736861389, No Iterations 4
smoothSolver:  Solving for Uz, Initial residual = 0.00109017112422, Final residual = 9.30843030557e-05, No Iterations 4
GAMG:  Solving for p, Initial residual = 0.0164244824766, Final residual = 0.000526496157781, No Iterations 5
time step continuity errors : sum local = 0.0169266364443, global = 0.000137291581198, cumulative = 0.160538635036
ExecutionTime = 2.38 s  ClockTime = 3 s

Time = 35

smoothSolver:  Solving for Ux, Initial residual = 0.000361536065609, Final residual = 2.95434065373e-05, No Iterations 4
smoothSolver:  Solving for Uy, Initial residual = 0.00710341075231, Final residual = 0.000558046886148, No Iterations 4
smoothSolver:  Solving for Uz, Initial residual = 0.00097987910396, Final residual = 8.30898467455e-05, No Iterations 4
GAMG:  Solving for p, Initial residual = 0.0163353634651, Final residual = 0.000696349887677, No Iterations 5
time step continuity errors : sum local = 0.021841586403, global = 8.18268285702e-05, cumulative = 0.160620461865
ExecutionTime = 2.45 s  ClockTime = 3 s

Time = 36

smoothSolver:  Solving for Ux, Initial residual = 0.000357988785013, Final residual = 2.92770962365e-05, No Iterations 4
smoothSolver:  Solving for Uy, Initial residual = 0.00604089300333, Final residual = 0.000469326230733, No Iterations 4
smoothSolver:  Solving for Uz, Initial residual = 0.000886825617256, Final residual = 7.46095187968e-05, No Iterations 4
GAMG:  Solving for p, Initial residual = 0.0160293507628, Final residual = 0.000525205994695, No Iterations 5
time step continuity errors : sum local = 0.0161528827942, global = 0.000108945093919, cumulative = 0.160729406959
ExecutionTime = 2.51 s  ClockTime = 3 s

Time = 37

smoothSolver:  Solving for Ux, Initial residual = 0.000354402935118, Final residual = 2.89857314494e-05, No Iterations 4
smoothSolver:  Solving for Uy, Initial residual = 0.00517669619016, Final residual = 0.000393724481475, No Iterations 4
smoothSolver:  Solving for Uz, Initial residual = 0.000827780904333, Final residual = 6.96747649688e-05, No Iterations 4
GAMG:  Solving for p, Initial residual = 0.0150645516868, Final residual = 0.000392758224187, No Iterations 5
time step continuity errors : sum local = 0.0119127581147, global = 3.54709715594e-05, cumulative = 0.16076487793
ExecutionTime = 2.58 s  ClockTime = 3 s

Time = 38

smoothSolver:  Solving for Ux, Initial residual = 0.000350388884256, Final residual = 2.87039363824e-05, No Iterations 4
smoothSolver:  Solving for Uy, Initial residual = 0.0045968604483, Final residual = 0.00034915858338, No Iterations 4
smoothSolver:  Solving for Uz, Initial residual = 0.000828742182896, Final residual = 7.07698769875e-05, No Iterations 4
GAMG:  Solving for p, Initial residual = 0.0136332262193, Final residual = 0.000612863270583, No Iterations 4
time step continuity errors : sum local = 0.0183948041905, global = -3.52477106606e-05, cumulative = 0.16072963022
ExecutionTime = 2.64 s  ClockTime = 3 s

Time = 39

smoothSolver:  Solving for Ux, Initial residual = 0.000347119197076, Final residual = 2.84922401537e-05, No Iterations 4
smoothSolver:  Solving for Uy, Initial residual = 0.00463081282696, Final residual = 0.000363326539568, No Iterations 4
smoothSolver:  Solving for Uz, Initial residual = 0.000853972348156, Final residual = 7.37112793167e-05, No Iterations 4
GAMG:  Solving for p, Initial residual = 0.0120834467047, Final residual = 0.000596145755317, No Iterations 4
time step continuity errors : sum local = 0.0177582042923, global = 1.02486918954e-07, cumulative = 0.160729732707
ExecutionTime = 2.71 s  ClockTime = 3 s

Time = 40

smoothSolver:  Solving for Ux, Initial residual = 0.000344085873745, Final residual = 2.8351404483e-05, No Iterations 4
smoothSolver:  Solving for Uy, Initial residual = 0.00466623479168, Final residual = 0.000373857783984, No Iterations 4
smoothSolver:  Solving for Uz, Initial residual = 0.000867540268438, Final residual = 7.49506571627e-05, No Iterations 4
GAMG:  Solving for p, Initial residual = 0.0104869394161, Final residual = 0.000443622545015, No Iterations 4
time step continuity errors : sum local = 0.0131656655289, global = -6.67472439355e-05, cumulative = 0.160662985463
ExecutionTime = 2.77 s  ClockTime = 3 s

Time = 41

smoothSolver:  Solving for Ux, Initial residual = 0.000340972859319, Final residual = 2.81888929254e-05, No Iterations 4
smoothSolver:  Solving for Uy, Initial residual = 0.00455829048479, Final residual = 0.000368397923633, No Iterations 4
smoothSolver:  Solving for Uz, Initial residual = 0.000856463808206, Final residual = 7.40071392665e-05, No Iterations 4
GAMG:  Solving for p, Initial residual = 0.00908382511913, Final residual = 0.000426880437344, No Iterations 4
time step continuity errors : sum local = 0.0126014201654, global = -1.9946903179e-05, cumulative = 0.16064303856
ExecutionTime = 2.84 s  ClockTime = 3 s

Time = 42

smoothSolver:  Solving for Ux, Initial residual = 0.000338419884678, Final residual = 2.8021150026e-05, No Iterations 4
smoothSolver:  Solving for Uy, Initial residual = 0.00435243835249, Final residual = 0.000352393937037, No Iterations 4
smoothSolver:  Solving for Uz, Initial residual = 0.000825836859778, Final residual = 7.13389467227e-05, No Iterations 4
GAMG:  Solving for p, Initial residual = 0.00811634472638, Final residual = 0.000281294226499, No Iterations 5
time step continuity errors : sum local = 0.0082579062516, global = 4.42426802159e-05, cumulative = 0.16068728124
ExecutionTime = 2.91 s  ClockTime = 3 s

Time = 43

smoothSolver:  Solving for Ux, Initial residual = 0.000336593053491, Final residual = 2.78241003179e-05, No Iterations 4
smoothSolver:  Solving for Uy, Initial residual = 0.0040981540869, Final residual = 0.000331889613919, No Iterations 4
smoothSolver:  Solving for Uz, Initial residual = 0.000780692898885, Final residual = 6.74475938448e-05, No Iterations 4
GAMG:  Solving for p, Initial residual = 0.00768857462382, Final residual = 0.000289786487317, No Iterations 5
time step continuity errors : sum local = 0.00844143384373, global = 1.70675880436e-05, cumulative = 0.160704348828
ExecutionTime = 2.98 s  ClockTime = 3 s

Time = 44

smoothSolver:  Solving for Ux, Initial residual = 0.000333472567028, Final residual = 2.76189887447e-05, No Iterations 4
smoothSolver:  Solving for Uy, Initial residual = 0.0036516674875, Final residual = 0.000294395946192, No Iterations 4
smoothSolver:  Solving for Uz, Initial residual = 0.000730611638807, Final residual = 6.29727542342e-05, No Iterations 4
GAMG:  Solving for p, Initial residual = 0.00771789548142, Final residual = 0.000288721458855, No Iterations 5
time step continuity errors : sum local = 0.00827501909753, global = 1.98408801945e-05, cumulative = 0.160724189708
ExecutionTime = 3.04 s  ClockTime = 3 s

Time = 45

smoothSolver:  Solving for Ux, Initial residual = 0.000331005763914, Final residual = 2.74393911698e-05, No Iterations 4
smoothSolver:  Solving for Uy, Initial residual = 0.00322613978632, Final residual = 0.000258192639931, No Iterations 4
smoothSolver:  Solving for Uz, Initial residual = 0.000685386691276, Final residual = 5.87307031318e-05, No Iterations 4
GAMG:  Solving for p, Initial residual = 0.00778701220725, Final residual = 0.000357190683761, No Iterations 5
time step continuity errors : sum local = 0.0100437746249, global = 2.67302508855e-05, cumulative = 0.160750919959
ExecutionTime = 3.11 s  ClockTime = 4 s

Time = 46

smoothSolver:  Solving for Ux, Initial residual = 0.000328167248781, Final residual = 2.72363452313e-05, No Iterations 4
smoothSolver:  Solving for Uy, Initial residual = 0.00275841178247, Final residual = 0.000216285901061, No Iterations 4
smoothSolver:  Solving for Uz, Initial residual = 0.000650957921168, Final residual = 5.54990634445e-05, No Iterations 4
GAMG:  Solving for p, Initial residual = 0.00750836353909, Final residual = 0.000259526652463, No Iterations 5
time step continuity errors : sum local = 0.0071814560999, global = 2.91678653943e-05, cumulative = 0.160780087824
ExecutionTime = 3.17 s  ClockTime = 4 s

Time = 47

smoothSolver:  Solving for Ux, Initial residual = 0.00032571324762, Final residual = 2.70456222021e-05, No Iterations 4
smoothSolver:  Solving for Uy, Initial residual = 0.00252930976744, Final residual = 0.000199396807068, No Iterations 4
smoothSolver:  Solving for Uz, Initial residual = 0.000630284776669, Final residual = 5.36991501175e-05, No Iterations 4
GAMG:  Solving for p, Initial residual = 0.00705970787957, Final residual = 0.000265824370905, No Iterations 5
time step continuity errors : sum local = 0.0072421116118, global = 3.51631002981e-05, cumulative = 0.160815250925
ExecutionTime = 3.24 s  ClockTime = 4 s

Time = 48

smoothSolver:  Solving for Ux, Initial residual = 0.000324042544393, Final residual = 2.68394904255e-05, No Iterations 4
smoothSolver:  Solving for Uy, Initial residual = 0.00249579719963, Final residual = 0.000200018612497, No Iterations 4
smoothSolver:  Solving for Uz, Initial residual = 0.000633648625848, Final residual = 5.43329072017e-05, No Iterations 4
GAMG:  Solving for p, Initial residual = 0.00637914361283, Final residual = 0.000163602518257, No Iterations 5
time step continuity errors : sum local = 0.00440261020685, global = 2.25178488986e-05, cumulative = 0.160837768773
ExecutionTime = 3.3 s  ClockTime = 4 s

Time = 49

smoothSolver:  Solving for Ux, Initial residual = 0.000322273832364, Final residual = 2.66292379437e-05, No Iterations 4
smoothSolver:  Solving for Uy, Initial residual = 0.00256274622294, Final residual = 0.000207034344164, No Iterations 4
smoothSolver:  Solving for Uz, Initial residual = 0.000637568607582, Final residual = 5.48984634838e-05, No Iterations 4
GAMG:  Solving for p, Initial residual = 0.00560764163422, Final residual = 0.000104538897788, No Iterations 5
time step continuity errors : sum local = 0.00278314050866, global = 2.0183801508e-05, cumulative = 0.160857952575
ExecutionTime = 3.37 s  ClockTime = 4 s

Time = 50

smoothSolver:  Solving for Ux, Initial residual = 0.000320044812945, Final residual = 2.63915686303e-05, No Iterations 4
smoothSolver:  Solving for Uy, Initial residual = 0.00256361648942, Final residual = 0.000207264009076, No Iterations 4
smoothSolver:  Solving for Uz, Initial residual = 0.000632787942718, Final residual = 5.45645301674e-05, No Iterations 4
GAMG:  Solving for p, Initial residual = 0.00482451454217, Final residual = 9.73692173466e-05, No Iterations 5
time step continuity errors : sum local = 0.00257197336213, global = 2.8615685436e-05, cumulative = 0.16088656826
ExecutionTime = 3.44 s  ClockTime = 4 s

Time = 51

smoothSolver:  Solving for Ux, Initial residual = 0.000315849517072, Final residual = 2.61571136578e-05, No Iterations 4
smoothSolver:  Solving for Uy, Initial residual = 0.00249265745534, Final residual = 0.000201975239338, No Iterations 4
smoothSolver:  Solving for Uz, Initial residual = 0.000620862461532, Final residual = 5.34256901616e-05, No Iterations 4
GAMG:  Solving for p, Initial residual = 0.00422202911303, Final residual = 8.95202660278e-05, No Iterations 5
time step continuity errors : sum local = 0.00234909511818, global = 2.58658803513e-05, cumulative = 0.160912434141
ExecutionTime = 3.5 s  ClockTime = 4 s

Time = 52

smoothSolver:  Solving for Ux, Initial residual = 0.000312860584771, Final residual = 2.59187727588e-05, No Iterations 4
smoothSolver:  Solving for Uy, Initial residual = 0.0023393867889, Final residual = 0.000188609223764, No Iterations 4
smoothSolver:  Solving for Uz, Initial residual = 0.000602354409406, Final residual = 5.17762608036e-05, No Iterations 4
GAMG:  Solving for p, Initial residual = 0.003940716538, Final residual = 0.000110805628769, No Iterations 5
time step continuity errors : sum local = 0.00288828621502, global = 1.74838837229e-05, cumulative = 0.160929918025
ExecutionTime = 3.57 s  ClockTime = 4 s

Time = 53

smoothSolver:  Solving for Ux, Initial residual = 0.000309682749791, Final residual = 2.56778674698e-05, No Iterations 4
smoothSolver:  Solving for Uy, Initial residual = 0.00214187330028, Final residual = 0.00017160588777, No Iterations 4
smoothSolver:  Solving for Uz, Initial residual = 0.000580478166375, Final residual = 4.9852690429e-05, No Iterations 4
GAMG:  Solving for p, Initial residual = 0.00382957110063, Final residual = 0.000120083406034, No Iterations 5
time step continuity errors : sum local = 0.00310744674136, global = 2.12878283137e-05, cumulative = 0.160951205853
ExecutionTime = 3.64 s  ClockTime = 4 s

Time = 54

smoothSolver:  Solving for Ux, Initial residual = 0.000308745154778, Final residual = 2.5435271244e-05, No Iterations 4
smoothSolver:  Solving for Uy, Initial residual = 0.00190431725113, Final residual = 0.000150875666038, No Iterations 4
smoothSolver:  Solving for Uz, Initial residual = 0.000558540330252, Final residual = 4.80242228342e-05, No Iterations 4
GAMG:  Solving for p, Initial residual = 0.00382824497827, Final residual = 0.000147038377188, No Iterations 5
time step continuity errors : sum local = 0.00377670365468, global = 2.06660452986e-05, cumulative = 0.160971871898
ExecutionTime = 3.7 s  ClockTime = 4 s

Time = 55

smoothSolver:  Solving for Ux, Initial residual = 0.000305562006162, Final residual = 2.50875630071e-05, No Iterations 4
smoothSolver:  Solving for Uy, Initial residual = 0.0017125751393, Final residual = 0.000134571853243, No Iterations 4
smoothSolver:  Solving for Uz, Initial residual = 0.00053679244653, Final residual = 4.62203013022e-05, No Iterations 4
GAMG:  Solving for p, Initial residual = 0.0037691194036, Final residual = 0.000122709190056, No Iterations 5
time step continuity errors : sum local = 0.00312666505256, global = 1.9737301405e-05, cumulative = 0.1609916092
ExecutionTime = 3.77 s  ClockTime = 4 s

Time = 56

smoothSolver:  Solving for Ux, Initial residual = 0.000301648675467, Final residual = 2.49240421535e-05, No Iterations 4
smoothSolver:  Solving for Uy, Initial residual = 0.00155585716105, Final residual = 0.000122264524642, No Iterations 4
smoothSolver:  Solving for Uz, Initial residual = 0.000529618601659, Final residual = 4.54785671203e-05, No Iterations 4
GAMG:  Solving for p, Initial residual = 0.00361395216593, Final residual = 0.000124929424848, No Iterations 5
time step continuity errors : sum local = 0.00315802244273, global = 2.0671653185e-05, cumulative = 0.161012280853
ExecutionTime = 3.83 s  ClockTime = 4 s

Time = 57

smoothSolver:  Solving for Ux, Initial residual = 0.00030045115536, Final residual = 2.48254938949e-05, No Iterations 4
smoothSolver:  Solving for Uy, Initial residual = 0.00154209068946, Final residual = 0.00012407332126, No Iterations 4
smoothSolver:  Solving for Uz, Initial residual = 0.000526988135922, Final residual = 4.5353945551e-05, No Iterations 4
GAMG:  Solving for p, Initial residual = 0.00332311548169, Final residual = 8.92679283388e-05, No Iterations 5
time step continuity errors : sum local = 0.00223986664952, global = 1.80940794608e-05, cumulative = 0.161030374932
ExecutionTime = 3.9 s  ClockTime = 4 s

Time = 58

smoothSolver:  Solving for Ux, Initial residual = 0.000300576716598, Final residual = 2.46848311593e-05, No Iterations 4
smoothSolver:  Solving for Uy, Initial residual = 0.00153870701749, Final residual = 0.000125672498628, No Iterations 4
smoothSolver:  Solving for Uz, Initial residual = 0.00052722716389, Final residual = 4.56085511858e-05, No Iterations 4
GAMG:  Solving for p, Initial residual = 0.00296598791013, Final residual = 6.81380009588e-05, No Iterations 5
time step continuity errors : sum local = 0.00169691738932, global = 1.8013351228e-05, cumulative = 0.161048388283
ExecutionTime = 3.96 s  ClockTime = 4 s

Time = 59

smoothSolver:  Solving for Ux, Initial residual = 0.000298184431249, Final residual = 2.44665635537e-05, No Iterations 4
smoothSolver:  Solving for Uy, Initial residual = 0.00157827508151, Final residual = 0.000132102113879, No Iterations 4
smoothSolver:  Solving for Uz, Initial residual = 0.000524109430534, Final residual = 4.5405058717e-05, No Iterations 4
GAMG:  Solving for p, Initial residual = 0.00259807668314, Final residual = 6.29121440621e-05, No Iterations 5
time step continuity errors : sum local = 0.00155506218151, global = 1.88322665267e-05, cumulative = 0.16106722055
ExecutionTime = 4.03 s  ClockTime = 4 s

Time = 60

smoothSolver:  Solving for Ux, Initial residual = 0.00029584209932, Final residual = 2.42538561894e-05, No Iterations 4
smoothSolver:  Solving for Uy, Initial residual = 0.00158481966052, Final residual = 0.000133873334966, No Iterations 4
smoothSolver:  Solving for Uz, Initial residual = 0.000517674059096, Final residual = 4.48027693408e-05, No Iterations 4
GAMG:  Solving for p, Initial residual = 0.00229125001845, Final residual = 7.936953068e-05, No Iterations 5
time step continuity errors : sum local = 0.00194706839556, global = 3.69128985248e-06, cumulative = 0.16107091184
ExecutionTime = 4.09 s  ClockTime = 5 s

Time = 61

smoothSolver:  Solving for Ux, Initial residual = 0.000293039819398, Final residual = 2.40090246072e-05, No Iterations 4
smoothSolver:  Solving for Uy, Initial residual = 0.00155147392, Final residual = 0.000131831540855, No Iterations 4
smoothSolver:  Solving for Uz, Initial residual = 0.000507523158405, Final residual = 4.38316811365e-05, No Iterations 4
GAMG:  Solving for p, Initial residual = 0.00207539737733, Final residual = 5.58780916717e-05, No Iterations 5
time step continuity errors : sum local = 0.00136155981745, global = 8.77923667267e-06, cumulative = 0.161079691076
ExecutionTime = 4.16 s  ClockTime = 5 s

Time = 62

smoothSolver:  Solving for Ux, Initial residual = 0.000293306225739, Final residual = 2.37899021826e-05, No Iterations 4
smoothSolver:  Solving for Uy, Initial residual = 0.0014592741419, Final residual = 0.000123592628228, No Iterations 4
smoothSolver:  Solving for Uz, Initial residual = 0.000495973946028, Final residual = 4.28658736988e-05, No Iterations 4
GAMG:  Solving for p, Initial residual = 0.00194588309319, Final residual = 6.38662762161e-05, No Iterations 5
time step continuity errors : sum local = 0.00154664073243, global = 9.24552459798e-06, cumulative = 0.161088936601
ExecutionTime = 4.23 s  ClockTime = 5 s

Time = 63

smoothSolver:  Solving for Ux, Initial residual = 0.000290823584222, Final residual = 2.35168542994e-05, No Iterations 4
smoothSolver:  Solving for Uy, Initial residual = 0.00137565683253, Final residual = 0.00011625539494, No Iterations 4
smoothSolver:  Solving for Uz, Initial residual = 0.000482439147886, Final residual = 4.16679868092e-05, No Iterations 4
GAMG:  Solving for p, Initial residual = 0.00188026988009, Final residual = 8.42877565125e-05, No Iterations 5
time step continuity errors : sum local = 0.00202811091729, global = 1.22434308489e-05, cumulative = 0.161101180032
ExecutionTime = 4.29 s  ClockTime = 5 s

Time = 64

smoothSolver:  Solving for Ux, Initial residual = 0.000286601098554, Final residual = 2.3188825041e-05, No Iterations 4
smoothSolver:  Solving for Uy, Initial residual = 0.00125762359252, Final residual = 0.000105636803169, No Iterations 4
smoothSolver:  Solving for Uz, Initial residual = 0.000469024528556, Final residual = 4.03526342252e-05, No Iterations 4
GAMG:  Solving for p, Initial residual = 0.00186161867087, Final residual = 8.2711409356e-05, No Iterations 5
time step continuity errors : sum local = 0.00197725737781, global = 1.5102517753e-05, cumulative = 0.16111628255
ExecutionTime = 4.36 s  ClockTime = 5 s

Time = 65

smoothSolver:  Solving for Ux, Initial residual = 0.000284381564019, Final residual = 2.28538357237e-05, No Iterations 4
smoothSolver:  Solving for Uy, Initial residual = 0.00119583165549, Final residual = 0.000100324477139, No Iterations 4
smoothSolver:  Solving for Uz, Initial residual = 0.000455320992869, Final residual = 3.90764990462e-05, No Iterations 4
GAMG:  Solving for p, Initial residual = 0.00183933888791, Final residual = 4.73114341563e-05, No Iterations 7
time step continuity errors : sum local = 0.00112308600481, global = 1.11687674133e-05, cumulative = 0.161127451317
ExecutionTime = 4.42 s  ClockTime = 5 s

Time = 66

smoothSolver:  Solving for Ux, Initial residual = 0.000281092274962, Final residual = 2.24977974e-05, No Iterations 4
smoothSolver:  Solving for Uy, Initial residual = 0.0011204968298, Final residual = 9.38069499605e-05, No Iterations 4
smoothSolver:  Solving for Uz, Initial residual = 0.000443242302332, Final residual = 3.80310984023e-05, No Iterations 4
GAMG:  Solving for p, Initial residual = 0.00174305603144, Final residual = 7.07293327108e-05, No Iterations 5
time step continuity errors : sum local = 0.0016655317499, global = 5.58329708623e-06, cumulative = 0.161133034614
ExecutionTime = 4.49 s  ClockTime = 5 s

Time = 67

smoothSolver:  Solving for Ux, Initial residual = 0.000276874304213, Final residual = 2.2055887586e-05, No Iterations 4
smoothSolver:  Solving for Uy, Initial residual = 0.00109327105633, Final residual = 9.14997659389e-05, No Iterations 4
smoothSolver:  Solving for Uz, Initial residual = 0.000432614631402, Final residual = 3.70839881989e-05, No Iterations 4
GAMG:  Solving for p, Initial residual = 0.00159057749997, Final residual = 3.87108848651e-05, No Iterations 5
time step continuity errors : sum local = 0.000905297017847, global = 9.74841394932e-06, cumulative = 0.161142783028
ExecutionTime = 4.56 s  ClockTime = 5 s

Time = 68

smoothSolver:  Solving for Ux, Initial residual = 0.000272853942327, Final residual = 2.14744020015e-05, No Iterations 4
smoothSolver:  Solving for Uy, Initial residual = 0.00105219386211, Final residual = 8.7484143382e-05, No Iterations 4
smoothSolver:  Solving for Uz, Initial residual = 0.000419042369481, Final residual = 3.58415250593e-05, No Iterations 4
GAMG:  Solving for p, Initial residual = 0.00141058064065, Final residual = 4.02176439405e-05, No Iterations 5
time step continuity errors : sum local = 0.000935125606228, global = 7.3106781485e-06, cumulative = 0.161150093706
ExecutionTime = 4.62 s  ClockTime = 5 s

Time = 69

smoothSolver:  Solving for Ux, Initial residual = 0.000265978265494, Final residual = 2.07291258596e-05, No Iterations 4
smoothSolver:  Solving for Uy, Initial residual = 0.00101190623884, Final residual = 8.38761972276e-05, No Iterations 4
smoothSolver:  Solving for Uz, Initial residual = 0.000402017182156, Final residual = 3.43787419366e-05, No Iterations 4
GAMG:  Solving for p, Initial residual = 0.00124638716554, Final residual = 5.51157132894e-05, No Iterations 4
time step continuity errors : sum local = 0.00127406318463, global = 1.29421758108e-05, cumulative = 0.161163035882
ExecutionTime = 4.69 s  ClockTime = 5 s

Time = 70

smoothSolver:  Solving for Ux, Initial residual = 0.000261977670436, Final residual = 2.05025468638e-05, No Iterations 4
smoothSolver:  Solving for Uy, Initial residual = 0.000980665544947, Final residual = 8.13080244835e-05, No Iterations 4
smoothSolver:  Solving for Uz, Initial residual = 0.000395615500154, Final residual = 3.37711195957e-05, No Iterations 4
GAMG:  Solving for p, Initial residual = 0.00110787137364, Final residual = 2.96129124581e-05, No Iterations 6
time step continuity errors : sum local = 0.000681293738607, global = 2.61610817217e-06, cumulative = 0.16116565199
ExecutionTime = 4.76 s  ClockTime = 5 s

Time = 71

smoothSolver:  Solving for Ux, Initial residual = 0.000262171157278, Final residual = 2.03283200644e-05, No Iterations 4
smoothSolver:  Solving for Uy, Initial residual = 0.000939676683899, Final residual = 7.78733330415e-05, No Iterations 4
smoothSolver:  Solving for Uz, Initial residual = 0.000388932810674, Final residual = 3.31861890482e-05, No Iterations 4
GAMG:  Solving for p, Initial residual = 0.00102516009555, Final residual = 4.61747027328e-05, No Iterations 5
time step continuity errors : sum local = 0.00105608015599, global = 4.48281988411e-06, cumulative = 0.16117013481
ExecutionTime = 4.82 s  ClockTime = 5 s

Time = 72

smoothSolver:  Solving for Ux, Initial residual = 0.000260200842129, Final residual = 2.02778368475e-05, No Iterations 4
smoothSolver:  Solving for Uy, Initial residual = 0.000911658887517, Final residual = 7.58050256609e-05, No Iterations 4
smoothSolver:  Solving for Uz, Initial residual = 0.000384929941399, Final residual = 3.28143545159e-05, No Iterations 4
GAMG:  Solving for p, Initial residual = 0.000969905438901, Final residual = 3.43934743742e-05, No Iterations 6
time step continuity errors : sum local = 0.000782878389365, global = 8.28229194334e-06, cumulative = 0.161178417102
ExecutionTime = 4.89 s  ClockTime = 5 s

Time = 73

smoothSolver:  Solving for Ux, Initial residual = 0.000257873591707, Final residual = 2.01546736133e-05, No Iterations 4
smoothSolver:  Solving for Uy, Initial residual = 0.000881682202199, Final residual = 7.37535672677e-05, No Iterations 4
smoothSolver:  Solving for Uz, Initial residual = 0.000379365356388, Final residual = 3.22760942583e-05, No Iterations 4
GAMG:  Solving for p, Initial residual = 0.000947251437969, Final residual = 3.37039329861e-05, No Iterations 6
time step continuity errors : sum local = 0.000763423902865, global = 8.96079815548e-06, cumulative = 0.1611873779
ExecutionTime = 4.96 s  ClockTime = 5 s

Time = 74

smoothSolver:  Solving for Ux, Initial residual = 0.000257397640107, Final residual = 2.00901675057e-05, No Iterations 4
smoothSolver:  Solving for Uy, Initial residual = 0.000860153934164, Final residual = 7.23597361829e-05, No Iterations 4
smoothSolver:  Solving for Uz, Initial residual = 0.000374494231719, Final residual = 3.18389585919e-05, No Iterations 4
GAMG:  Solving for p, Initial residual = 0.000944555870627, Final residual = 3.56754475944e-05, No Iterations 6
time step continuity errors : sum local = 0.000803941172973, global = 9.27443808607e-06, cumulative = 0.161196652338
ExecutionTime = 5.02 s  ClockTime = 5 s

Time = 75

smoothSolver:  Solving for Ux, Initial residual = 0.000256464997011, Final residual = 1.98782651798e-05, No Iterations 4
smoothSolver:  Solving for Uy, Initial residual = 0.000839494391878, Final residual = 7.11149407501e-05, No Iterations 4
smoothSolver:  Solving for Uz, Initial residual = 0.000366139759778, Final residual = 3.11100269005e-05, No Iterations 4
GAMG:  Solving for p, Initial residual = 0.000922460524734, Final residual = 3.27774585482e-05, No Iterations 6
time step continuity errors : sum local = 0.000734711534522, global = 8.59014467679e-06, cumulative = 0.161205242483
ExecutionTime = 5.09 s  ClockTime = 6 s

Time = 76

smoothSolver:  Solving for Ux, Initial residual = 0.000251297738754, Final residual = 1.94260223577e-05, No Iterations 4
smoothSolver:  Solving for Uy, Initial residual = 0.000815698131994, Final residual = 6.95490876366e-05, No Iterations 4
smoothSolver:  Solving for Uz, Initial residual = 0.000353705092166, Final residual = 3.00077637681e-05, No Iterations 4
GAMG:  Solving for p, Initial residual = 0.000868614412302, Final residual = 2.14844337229e-05, No Iterations 6
time step continuity errors : sum local = 0.000479023654662, global = 5.15691522057e-06, cumulative = 0.161210399398
ExecutionTime = 5.15 s  ClockTime = 6 s

Time = 77

smoothSolver:  Solving for Ux, Initial residual = 0.000247393200759, Final residual = 1.92875486711e-05, No Iterations 4
smoothSolver:  Solving for Uy, Initial residual = 0.000806844343962, Final residual = 6.92589010419e-05, No Iterations 4
smoothSolver:  Solving for Uz, Initial residual = 0.000347579631856, Final residual = 2.9458822984e-05, No Iterations 4
GAMG:  Solving for p, Initial residual = 0.000794122245321, Final residual = 1.62683222201e-05, No Iterations 6
time step continuity errors : sum local = 0.000360676353267, global = 1.38292975416e-06, cumulative = 0.161211782328
ExecutionTime = 5.23 s  ClockTime = 6 s

Time = 78

smoothSolver:  Solving for Ux, Initial residual = 0.000252207172555, Final residual = 1.93603065802e-05, No Iterations 4
smoothSolver:  Solving for Uy, Initial residual = 0.000807866778704, Final residual = 6.96516495006e-05, No Iterations 4
smoothSolver:  Solving for Uz, Initial residual = 0.000344038609469, Final residual = 2.91705517188e-05, No Iterations 4
GAMG:  Solving for p, Initial residual = 0.000709261056956, Final residual = 1.66908899204e-05, No Iterations 6
time step continuity errors : sum local = 0.000368085001954, global = 5.29194446041e-07, cumulative = 0.161212311522
ExecutionTime = 5.3 s  ClockTime = 6 s

Time = 79

smoothSolver:  Solving for Ux, Initial residual = 0.000244955602849, Final residual = 1.90389452618e-05, No Iterations 4
smoothSolver:  Solving for Uy, Initial residual = 0.000784998872439, Final residual = 6.78776318989e-05, No Iterations 4
smoothSolver:  Solving for Uz, Initial residual = 0.000332530291374, Final residual = 2.80694285379e-05, No Iterations 4
GAMG:  Solving for p, Initial residual = 0.000627709110025, Final residual = 2.93263122905e-05, No Iterations 4
time step continuity errors : sum local = 0.000643631990294, global = 5.58776763317e-06, cumulative = 0.16121789929
ExecutionTime = 5.37 s  ClockTime = 6 s

Time = 80

smoothSolver:  Solving for Ux, Initial residual = 0.000238197598335, Final residual = 1.8379145746e-05, No Iterations 4
smoothSolver:  Solving for Uy, Initial residual = 0.00074511854668, Final residual = 6.45694321606e-05, No Iterations 4
smoothSolver:  Solving for Uz, Initial residual = 0.000316456412416, Final residual = 2.66431746638e-05, No Iterations 4
GAMG:  Solving for p, Initial residual = 0.00055742315153, Final residual = 1.51650346424e-05, No Iterations 6
time step continuity errors : sum local = 0.000331599861328, global = 3.05148162413e-06, cumulative = 0.161220950772
ExecutionTime = 5.43 s  ClockTime = 6 s

Time = 81

smoothSolver:  Solving for Ux, Initial residual = 0.000235644133558, Final residual = 1.83668929184e-05, No Iterations 4
smoothSolver:  Solving for Uy, Initial residual = 0.000733351159688, Final residual = 6.36157056833e-05, No Iterations 4
smoothSolver:  Solving for Uz, Initial residual = 0.00031361184482, Final residual = 2.63522266593e-05, No Iterations 4
GAMG:  Solving for p, Initial residual = 0.000522452808969, Final residual = 1.64539697725e-05, No Iterations 6
time step continuity errors : sum local = 0.00035808132438, global = 3.48564751083e-06, cumulative = 0.161224436419
ExecutionTime = 5.49 s  ClockTime = 6 s

Time = 82

smoothSolver:  Solving for Ux, Initial residual = 0.000240002088879, Final residual = 1.9125691869e-05, No Iterations 4
smoothSolver:  Solving for Uy, Initial residual = 0.00075174058718, Final residual = 6.52666602279e-05, No Iterations 4
smoothSolver:  Solving for Uz, Initial residual = 0.00032423137709, Final residual = 2.7241077229e-05, No Iterations 4
GAMG:  Solving for p, Initial residual = 0.000499660565424, Final residual = 1.82704917359e-05, No Iterations 6
time step continuity errors : sum local = 0.000395717641031, global = 3.83118032131e-06, cumulative = 0.161228267599
ExecutionTime = 5.56 s  ClockTime = 6 s

Time = 83

smoothSolver:  Solving for Ux, Initial residual = 0.000240946776053, Final residual = 1.97703455098e-05, No Iterations 4
smoothSolver:  Solving for Uy, Initial residual = 0.000772874103918, Final residual = 6.71124230432e-05, No Iterations 4
smoothSolver:  Solving for Uz, Initial residual = 0.000334325284458, Final residual = 2.81108698585e-05, No Iterations 4
GAMG:  Solving for p, Initial residual = 0.000486650070295, Final residual = 1.75589859167e-05, No Iterations 6
time step continuity errors : sum local = 0.000378484403613, global = 3.68309895292e-06, cumulative = 0.161231950698
ExecutionTime = 5.63 s  ClockTime = 6 s

Time = 84

smoothSolver:  Solving for Ux, Initial residual = 0.000250150220225, Final residual = 2.09829719659e-05, No Iterations 4
smoothSolver:  Solving for Uy, Initial residual = 0.000812052898674, Final residual = 7.04967103837e-05, No Iterations 4
smoothSolver:  Solving for Uz, Initial residual = 0.00035264651712, Final residual = 2.96938686801e-05, No Iterations 4
GAMG:  Solving for p, Initial residual = 0.000478334428595, Final residual = 1.69361601636e-05, No Iterations 6
time step continuity errors : sum local = 0.000363315811647, global = 3.42129399138e-06, cumulative = 0.161235371992
ExecutionTime = 5.7 s  ClockTime = 6 s

Time = 85

smoothSolver:  Solving for Ux, Initial residual = 0.000257413391141, Final residual = 2.17053753382e-05, No Iterations 4
smoothSolver:  Solving for Uy, Initial residual = 0.00083167688789, Final residual = 7.2182185639e-05, No Iterations 4
smoothSolver:  Solving for Uz, Initial residual = 0.000361667437313, Final residual = 3.0495504553e-05, No Iterations 4
GAMG:  Solving for p, Initial residual = 0.000458490568063, Final residual = 1.4816481171e-05, No Iterations 6
time step continuity errors : sum local = 0.000316367285885, global = 3.01774759512e-06, cumulative = 0.16123838974
ExecutionTime = 5.77 s  ClockTime = 6 s

Time = 86

smoothSolver:  Solving for Ux, Initial residual = 0.000262667633472, Final residual = 2.21706519602e-05, No Iterations 4
smoothSolver:  Solving for Uy, Initial residual = 0.000842923275225, Final residual = 7.30983089755e-05, No Iterations 4
smoothSolver:  Solving for Uz, Initial residual = 0.000366509072725, Final residual = 3.0938379178e-05, No Iterations 4
GAMG:  Solving for p, Initial residual = 0.000425354909511, Final residual = 1.19554080024e-05, No Iterations 6
time step continuity errors : sum local = 0.00025413699408, global = 2.39365404333e-06, cumulative = 0.161240783394
ExecutionTime = 5.83 s  ClockTime = 6 s

Time = 87

smoothSolver:  Solving for Ux, Initial residual = 0.000266421515019, Final residual = 2.24893656194e-05, No Iterations 4
smoothSolver:  Solving for Uy, Initial residual = 0.000847265669072, Final residual = 7.33916238779e-05, No Iterations 4
smoothSolver:  Solving for Uz, Initial residual = 0.000368932268692, Final residual = 3.11749774053e-05, No Iterations 4
GAMG:  Solving for p, Initial residual = 0.000384959125559, Final residual = 1.01641303938e-05, No Iterations 6
time step continuity errors : sum local = 0.000215127432897, global = 9.64006799429e-07, cumulative = 0.161241747401
ExecutionTime = 5.9 s  ClockTime = 6 s

Time = 88

smoothSolver:  Solving for Ux, Initial residual = 0.00026899491466, Final residual = 2.27161820994e-05, No Iterations 4
smoothSolver:  Solving for Uy, Initial residual = 0.000849766704467, Final residual = 7.35497110191e-05, No Iterations 4
smoothSolver:  Solving for Uz, Initial residual = 0.000369787822203, Final residual = 3.12785663128e-05, No Iterations 4
GAMG:  Solving for p, Initial residual = 0.00034476127026, Final residual = 9.17146600039e-06, No Iterations 6
time step continuity errors : sum local = 0.000193307975688, global = 1.22530152787e-06, cumulative = 0.161242972702
ExecutionTime = 5.97 s  ClockTime = 6 s

Time = 89

smoothSolver:  Solving for Ux, Initial residual = 0.000270754476865, Final residual = 2.28780130036e-05, No Iterations 4
smoothSolver:  Solving for Uy, Initial residual = 0.00084885257211, Final residual = 7.3447146395e-05, No Iterations 4
smoothSolver:  Solving for Uz, Initial residual = 0.000369613056504, Final residual = 3.12940862964e-05, No Iterations 4
GAMG:  Solving for p, Initial residual = 0.000308087998483, Final residual = 1.04871057889e-05, No Iterations 6
time step continuity errors : sum local = 0.000220192500342, global = 1.05726166263e-06, cumulative = 0.161244029964
ExecutionTime = 6.05 s  ClockTime = 7 s

Time = 90

smoothSolver:  Solving for Ux, Initial residual = 0.000271993928945, Final residual = 2.29959768691e-05, No Iterations 4
smoothSolver:  Solving for Uy, Initial residual = 0.000845918521325, Final residual = 7.32143612416e-05, No Iterations 4
smoothSolver:  Solving for Uz, Initial residual = 0.000368714776274, Final residual = 3.12465105117e-05, No Iterations 4
GAMG:  Solving for p, Initial residual = 0.000285162388968, Final residual = 1.07024809835e-05, No Iterations 6
time step continuity errors : sum local = 0.000223880945385, global = 8.68010162439e-07, cumulative = 0.161244897974
ExecutionTime = 6.11 s  ClockTime = 7 s

Time = 91

smoothSolver:  Solving for Ux, Initial residual = 0.000272891007662, Final residual = 2.30833946448e-05, No Iterations 4
smoothSolver:  Solving for Uy, Initial residual = 0.000842840422535, Final residual = 7.30153526552e-05, No Iterations 4
smoothSolver:  Solving for Uz, Initial residual = 0.000367323765915, Final residual = 3.11551329948e-05, No Iterations 4
GAMG:  Solving for p, Initial residual = 0.000272512349312, Final residual = 6.85558198214e-06, No Iterations 8
time step continuity errors : sum local = 0.000142877597368, global = 6.78704591068e-07, cumulative = 0.161245576679
ExecutionTime = 6.18 s  ClockTime = 7 s

Time = 92

smoothSolver:  Solving for Ux, Initial residual = 0.000273449142876, Final residual = 2.31421007933e-05, No Iterations 4
smoothSolver:  Solving for Uy, Initial residual = 0.000839925738031, Final residual = 7.28070387868e-05, No Iterations 4
smoothSolver:  Solving for Uz, Initial residual = 0.000365605231748, Final residual = 3.10327741626e-05, No Iterations 4
GAMG:  Solving for p, Initial residual = 0.000267177130204, Final residual = 1.1633836558e-05, No Iterations 6
time step continuity errors : sum local = 0.000241514598678, global = 1.68851696246e-06, cumulative = 0.161247265196
ExecutionTime = 6.25 s  ClockTime = 7 s

Time = 93

smoothSolver:  Solving for Ux, Initial residual = 0.000273816116281, Final residual = 2.31846682176e-05, No Iterations 4
smoothSolver:  Solving for Uy, Initial residual = 0.000837173862299, Final residual = 7.26384718719e-05, No Iterations 4
smoothSolver:  Solving for Uz, Initial residual = 0.000363709019702, Final residual = 3.08941112625e-05, No Iterations 4
GAMG:  Solving for p, Initial residual = 0.000262385065531, Final residual = 1.05139434868e-05, No Iterations 6
time step continuity errors : sum local = 0.000217519603675, global = 1.92574793141e-06, cumulative = 0.161249190944
ExecutionTime = 6.32 s  ClockTime = 7 s

Time = 94

smoothSolver:  Solving for Ux, Initial residual = 0.000273962579605, Final residual = 2.32075043594e-05, No Iterations 4
smoothSolver:  Solving for Uy, Initial residual = 0.00083398811349, Final residual = 7.24179070348e-05, No Iterations 4
smoothSolver:  Solving for Uz, Initial residual = 0.000361637494231, Final residual = 3.0739249095e-05, No Iterations 4
GAMG:  Solving for p, Initial residual = 0.000258359065624, Final residual = 1.08310939171e-05, No Iterations 6
time step continuity errors : sum local = 0.000223288258262, global = 1.90548133296e-06, cumulative = 0.161251096425
ExecutionTime = 6.39 s  ClockTime = 7 s

Time = 95

smoothSolver:  Solving for Ux, Initial residual = 0.000273968915041, Final residual = 2.32189069895e-05, No Iterations 4
smoothSolver:  Solving for Uy, Initial residual = 0.000829961841696, Final residual = 7.21308502774e-05, No Iterations 4
smoothSolver:  Solving for Uz, Initial residual = 0.000359459161857, Final residual = 3.05727796375e-05, No Iterations 4
GAMG:  Solving for p, Initial residual = 0.00024874728779, Final residual = 8.58783048279e-06, No Iterations 8
time step continuity errors : sum local = 0.000176394938832, global = 1.76337862098e-06, cumulative = 0.161252859804
ExecutionTime = 6.46 s  ClockTime = 7 s

Time = 96

smoothSolver:  Solving for Ux, Initial residual = 0.000273878030384, Final residual = 2.32192071452e-05, No Iterations 4
smoothSolver:  Solving for Uy, Initial residual = 0.000824735808656, Final residual = 7.17466207863e-05, No Iterations 4
smoothSolver:  Solving for Uz, Initial residual = 0.000357192199749, Final residual = 3.03954553768e-05, No Iterations 4
GAMG:  Solving for p, Initial residual = 0.000236757667345, Final residual = 1.04728403353e-05, No Iterations 7
time step continuity errors : sum local = 0.000214269491856, global = 2.10553018469e-06, cumulative = 0.161254965334
ExecutionTime = 6.53 s  ClockTime = 7 s

Time = 97

smoothSolver:  Solving for Ux, Initial residual = 0.000273657226416, Final residual = 2.32087806168e-05, No Iterations 4
smoothSolver:  Solving for Uy, Initial residual = 0.000824887298341, Final residual = 7.18109677084e-05, No Iterations 4
smoothSolver:  Solving for Uz, Initial residual = 0.000354835419751, Final residual = 3.02089271358e-05, No Iterations 4
GAMG:  Solving for p, Initial residual = 0.000214173540897, Final residual = 8.0699565824e-06, No Iterations 7
time step continuity errors : sum local = 0.000164545105706, global = 1.88633439082e-06, cumulative = 0.161256851668
ExecutionTime = 6.6 s  ClockTime = 7 s

Time = 98

smoothSolver:  Solving for Ux, Initial residual = 0.000273354387347, Final residual = 2.3190112955e-05, No Iterations 4
smoothSolver:  Solving for Uy, Initial residual = 0.000816334235738, Final residual = 7.11240756723e-05, No Iterations 4
smoothSolver:  Solving for Uz, Initial residual = 0.000352429257208, Final residual = 3.00143214732e-05, No Iterations 4
GAMG:  Solving for p, Initial residual = 0.000194472105524, Final residual = 8.52088081826e-06, No Iterations 8
time step continuity errors : sum local = 0.000173085632002, global = 9.83327595159e-07, cumulative = 0.161257834996
ExecutionTime = 6.67 s  ClockTime = 7 s

Time = 99

smoothSolver:  Solving for Ux, Initial residual = 0.000272909353967, Final residual = 2.3164894976e-05, No Iterations 4
smoothSolver:  Solving for Uy, Initial residual = 0.000813616121355, Final residual = 7.09264608306e-05, No Iterations 4
smoothSolver:  Solving for Uz, Initial residual = 0.000349950757351, Final residual = 2.98135953377e-05, No Iterations 4
GAMG:  Solving for p, Initial residual = 0.000177040611995, Final residual = 4.92406906562e-06, No Iterations 8
time step continuity errors : sum local = 9.9690744598e-05, global = 5.43820829236e-07, cumulative = 0.161258378817
ExecutionTime = 6.74 s  ClockTime = 7 s

Time = 100

smoothSolver:  Solving for Ux, Initial residual = 0.000272447621789, Final residual = 2.31340342256e-05, No Iterations 4
smoothSolver:  Solving for Uy, Initial residual = 0.000806448845499, Final residual = 7.03127574988e-05, No Iterations 4
smoothSolver:  Solving for Uz, Initial residual = 0.000347484118474, Final residual = 2.96151300009e-05, No Iterations 4
GAMG:  Solving for p, Initial residual = 0.000162859400435, Final residual = 4.799951036e-06, No Iterations 8
time step continuity errors : sum local = 9.6861376924e-05, global = 6.17945549058e-07, cumulative = 0.161258996762
ExecutionTime = 6.8 s  ClockTime = 7 s

Time = 101

smoothSolver:  Solving for Ux, Initial residual = 0.000271911528484, Final residual = 2.30974091244e-05, No Iterations 4
smoothSolver:  Solving for Uy, Initial residual = 0.000799690796766, Final residual = 6.97386438127e-05, No Iterations 4
smoothSolver:  Solving for Uz, Initial residual = 0.000345021108581, Final residual = 2.94130238038e-05, No Iterations 4
GAMG:  Solving for p, Initial residual = 0.000155556189485, Final residual = 5.13328364628e-06, No Iterations 8
time step continuity errors : sum local = 0.000103247723972, global = 8.8207870249e-07, cumulative = 0.161259878841
ExecutionTime = 6.9 s  ClockTime = 7 s

Time = 102

smoothSolver:  Solving for Ux, Initial residual = 0.000271259336121, Final residual = 2.30532203337e-05, No Iterations 4
smoothSolver:  Solving for Uy, Initial residual = 0.000794975455569, Final residual = 6.93273919198e-05, No Iterations 4
smoothSolver:  Solving for Uz, Initial residual = 0.000342573495815, Final residual = 2.92115699743e-05, No Iterations 4
GAMG:  Solving for p, Initial residual = 0.000149661500881, Final residual = 6.19294114194e-06, No Iterations 8
time step continuity errors : sum local = 0.000124165065704, global = 1.1934647971e-06, cumulative = 0.161261072306
ExecutionTime = 6.97 s  ClockTime = 7 s

Time = 103

smoothSolver:  Solving for Ux, Initial residual = 0.000270629802743, Final residual = 2.30081787173e-05, No Iterations 4
smoothSolver:  Solving for Uy, Initial residual = 0.000789161572302, Final residual = 6.88112036889e-05, No Iterations 4
smoothSolver:  Solving for Uz, Initial residual = 0.000340103743492, Final residual = 2.9007267347e-05, No Iterations 4
GAMG:  Solving for p, Initial residual = 0.000145983100106, Final residual = 6.36931141286e-06, No Iterations 8
time step continuity errors : sum local = 0.000127294383145, global = 1.231471734e-06, cumulative = 0.161262303777
ExecutionTime = 7.04 s  ClockTime = 7 s

Time = 104

smoothSolver:  Solving for Ux, Initial residual = 0.000269965284151, Final residual = 2.29571887854e-05, No Iterations 4
smoothSolver:  Solving for Uy, Initial residual = 0.000783029230201, Final residual = 6.82630907314e-05, No Iterations 4
smoothSolver:  Solving for Uz, Initial residual = 0.000337572489941, Final residual = 2.87972409613e-05, No Iterations 4
GAMG:  Solving for p, Initial residual = 0.000143800421225, Final residual = 6.59209841727e-06, No Iterations 7
time step continuity errors : sum local = 0.000131312765466, global = 1.92900255473e-06, cumulative = 0.16126423278
ExecutionTime = 7.11 s  ClockTime = 8 s

Time = 105

smoothSolver:  Solving for Ux, Initial residual = 0.00026929019878, Final residual = 2.2903465881e-05, No Iterations 4
smoothSolver:  Solving for Uy, Initial residual = 0.000775457727171, Final residual = 6.75854954083e-05, No Iterations 4
smoothSolver:  Solving for Uz, Initial residual = 0.000335043380713, Final residual = 2.85868285557e-05, No Iterations 4
GAMG:  Solving for p, Initial residual = 0.000135806364766, Final residual = 4.39039732171e-06, No Iterations 7
time step continuity errors : sum local = 8.71677400428e-05, global = 1.93142106157e-06, cumulative = 0.161266164201
ExecutionTime = 7.18 s  ClockTime = 8 s

Time = 106

smoothSolver:  Solving for Ux, Initial residual = 0.000268522783528, Final residual = 2.28474576096e-05, No Iterations 4
smoothSolver:  Solving for Uy, Initial residual = 0.000771418790109, Final residual = 6.72130222994e-05, No Iterations 4
smoothSolver:  Solving for Uz, Initial residual = 0.000332448933646, Final residual = 2.83716223559e-05, No Iterations 4
GAMG:  Solving for p, Initial residual = 0.000124750388145, Final residual = 3.53106640978e-06, No Iterations 7
time step continuity errors : sum local = 6.98871678658e-05, global = 1.12371309469e-06, cumulative = 0.161267287914
ExecutionTime = 7.25 s  ClockTime = 8 s

Time = 107

smoothSolver:  Solving for Ux, Initial residual = 0.000267770793486, Final residual = 2.27890528893e-05, No Iterations 4
smoothSolver:  Solving for Uy, Initial residual = 0.000764831841401, Final residual = 6.66198286371e-05, No Iterations 4
smoothSolver:  Solving for Uz, Initial residual = 0.000329833347945, Final residual = 2.81548592181e-05, No Iterations 4
GAMG:  Solving for p, Initial residual = 0.000115129793044, Final residual = 3.53308601507e-06, No Iterations 7
time step continuity errors : sum local = 6.9710361231e-05, global = 1.30912538786e-06, cumulative = 0.16126859704
ExecutionTime = 7.32 s  ClockTime = 8 s

Time = 108

smoothSolver:  Solving for Ux, Initial residual = 0.000266915917021, Final residual = 2.27260645199e-05, No Iterations 4
smoothSolver:  Solving for Uy, Initial residual = 0.000759142534302, Final residual = 6.61229837164e-05, No Iterations 4
smoothSolver:  Solving for Uz, Initial residual = 0.000327196520684, Final residual = 2.79366242825e-05, No Iterations 4
GAMG:  Solving for p, Initial residual = 0.000106438780792, Final residual = 4.99493420425e-06, No Iterations 7
time step continuity errors : sum local = 9.82630225484e-05, global = -2.85454883437e-07, cumulative = 0.161268311585
ExecutionTime = 7.39 s  ClockTime = 8 s

Time = 109

smoothSolver:  Solving for Ux, Initial residual = 0.000266110113289, Final residual = 2.2663359522e-05, No Iterations 4
smoothSolver:  Solving for Uy, Initial residual = 0.000752532023039, Final residual = 6.55575485075e-05, No Iterations 4
smoothSolver:  Solving for Uz, Initial residual = 0.000324543311227, Final residual = 2.77169098812e-05, No Iterations 4
GAMG:  Solving for p, Initial residual = 0.000101807679131, Final residual = 5.08041018403e-06, No Iterations 7
time step continuity errors : sum local = 9.96497591582e-05, global = -2.5225850382e-07, cumulative = 0.161268059326
ExecutionTime = 7.46 s  ClockTime = 8 s

Time = 110

smoothSolver:  Solving for Ux, Initial residual = 0.000265275697886, Final residual = 2.25975034357e-05, No Iterations 4
smoothSolver:  Solving for Uy, Initial residual = 0.000746488179442, Final residual = 6.50472606031e-05, No Iterations 4
smoothSolver:  Solving for Uz, Initial residual = 0.000321885825373, Final residual = 2.74967073391e-05, No Iterations 4
GAMG:  Solving for p, Initial residual = 9.92161984415e-05, Final residual = 4.0223602227e-06, No Iterations 7
time step continuity errors : sum local = 7.86704625148e-05, global = 1.47845270891e-06, cumulative = 0.161269537779
ExecutionTime = 7.53 s  ClockTime = 8 s

Time = 111

smoothSolver:  Solving for Ux, Initial residual = 0.000264408919369, Final residual = 2.25296015667e-05, No Iterations 4
smoothSolver:  Solving for Uy, Initial residual = 0.000739333591985, Final residual = 6.44466240239e-05, No Iterations 4
smoothSolver:  Solving for Uz, Initial residual = 0.000319222366953, Final residual = 2.72753476743e-05, No Iterations 4
GAMG:  Solving for p, Initial residual = 9.91202039434e-05, Final residual = 3.88689703483e-06, No Iterations 10
time step continuity errors : sum local = 7.57963082332e-05, global = 5.33181286528e-07, cumulative = 0.16127007096
ExecutionTime = 7.6 s  ClockTime = 8 s

Time = 112

smoothSolver:  Solving for Ux, Initial residual = 0.000263503958265, Final residual = 2.24603874542e-05, No Iterations 4
smoothSolver:  Solving for Uy, Initial residual = 0.000733768373633, Final residual = 6.39803363101e-05, No Iterations 4
smoothSolver:  Solving for Uz, Initial residual = 0.000316576469859, Final residual = 2.70547972667e-05, No Iterations 4
GAMG:  Solving for p, Initial residual = 0.000100032601139, Final residual = 4.36708377005e-06, No Iterations 7
time step continuity errors : sum local = 8.49080677276e-05, global = 8.15155451411e-07, cumulative = 0.161270886116
ExecutionTime = 7.67 s  ClockTime = 8 s

Time = 113

smoothSolver:  Solving for Ux, Initial residual = 0.000262586043697, Final residual = 2.23895767016e-05, No Iterations 4
smoothSolver:  Solving for Uy, Initial residual = 0.000729221941092, Final residual = 6.35953244577e-05, No Iterations 4
smoothSolver:  Solving for Uz, Initial residual = 0.00031396718401, Final residual = 2.68374598198e-05, No Iterations 4
GAMG:  Solving for p, Initial residual = 9.53387607542e-05, Final residual = 4.64465186202e-06, No Iterations 7
time step continuity errors : sum local = 9.00608348791e-05, global = -3.2446690142e-07, cumulative = 0.161270561649
ExecutionTime = 7.73 s  ClockTime = 8 s

Time = 114

smoothSolver:  Solving for Ux, Initial residual = 0.000261695233094, Final residual = 2.23176874903e-05, No Iterations 4
smoothSolver:  Solving for Uy, Initial residual = 0.000722542343144, Final residual = 6.30260941598e-05, No Iterations 4
smoothSolver:  Solving for Uz, Initial residual = 0.000311353387645, Final residual = 2.66183112788e-05, No Iterations 4
GAMG:  Solving for p, Initial residual = 9.5153937657e-05, Final residual = 3.92415508635e-06, No Iterations 9
time step continuity errors : sum local = 7.58629809337e-05, global = 2.2656562572e-07, cumulative = 0.161270788214
ExecutionTime = 7.8 s  ClockTime = 8 s

Time = 115

smoothSolver:  Solving for Ux, Initial residual = 0.000260812440406, Final residual = 2.22441560846e-05, No Iterations 4
smoothSolver:  Solving for Uy, Initial residual = 0.000716798556329, Final residual = 6.25404817369e-05, No Iterations 4
smoothSolver:  Solving for Uz, Initial residual = 0.00030878252714, Final residual = 2.64023219154e-05, No Iterations 4
GAMG:  Solving for p, Initial residual = 9.2003643461e-05, Final residual = 3.86275577285e-06, No Iterations 9
time step continuity errors : sum local = 7.44605686238e-05, global = 7.02921109405e-07, cumulative = 0.161271491135
ExecutionTime = 7.87 s  ClockTime = 8 s

Time = 116

smoothSolver:  Solving for Ux, Initial residual = 0.000259807584388, Final residual = 2.21694797961e-05, No Iterations 4
smoothSolver:  Solving for Uy, Initial residual = 0.000712412716548, Final residual = 6.21671325884e-05, No Iterations 4
smoothSolver:  Solving for Uz, Initial residual = 0.000306223074328, Final residual = 2.61872735989e-05, No Iterations 4
GAMG:  Solving for p, Initial residual = 8.60944004394e-05, Final residual = 3.5752587487e-06, No Iterations 9
time step continuity errors : sum local = 6.87299177402e-05, global = 7.14410728961e-07, cumulative = 0.161272205546
ExecutionTime = 7.94 s  ClockTime = 8 s

Time = 117

smoothSolver:  Solving for Ux, Initial residual = 0.000258843991303, Final residual = 2.20931416262e-05, No Iterations 4
smoothSolver:  Solving for Uy, Initial residual = 0.000705930332716, Final residual = 6.16195900994e-05, No Iterations 4
smoothSolver:  Solving for Uz, Initial residual = 0.000303701235051, Final residual = 2.59748476233e-05, No Iterations 4
GAMG:  Solving for p, Initial residual = 8.17725072226e-05, Final residual = 3.07659703827e-06, No Iterations 9
time step continuity errors : sum local = 5.89812192871e-05, global = 1.00577795665e-06, cumulative = 0.161273211324
ExecutionTime = 8.01 s  ClockTime = 8 s

Time = 118

smoothSolver:  Solving for Ux, Initial residual = 0.000257927053696, Final residual = 2.20171847901e-05, No Iterations 4
smoothSolver:  Solving for Uy, Initial residual = 0.000700727881418, Final residual = 6.11761251292e-05, No Iterations 4
smoothSolver:  Solving for Uz, Initial residual = 0.000301182829649, Final residual = 2.5762292545e-05, No Iterations 4
GAMG:  Solving for p, Initial residual = 7.80915297456e-05, Final residual = 3.31537252079e-06, No Iterations 9
time step continuity errors : sum local = 6.33839281576e-05, global = 8.44075426883e-07, cumulative = 0.1612740554
ExecutionTime = 8.08 s  ClockTime = 9 s

Time = 119

smoothSolver:  Solving for Ux, Initial residual = 0.000256917238019, Final residual = 2.19375659432e-05, No Iterations 4
smoothSolver:  Solving for Uy, Initial residual = 0.000694488338414, Final residual = 6.06436153798e-05, No Iterations 4
smoothSolver:  Solving for Uz, Initial residual = 0.000298693974506, Final residual = 2.55518022607e-05, No Iterations 4
GAMG:  Solving for p, Initial residual = 7.43937591184e-05, Final residual = 2.96593687666e-06, No Iterations 9
time step continuity errors : sum local = 5.65497423005e-05, global = 9.15090927695e-07, cumulative = 0.16127497049
ExecutionTime = 8.15 s  ClockTime = 9 s

Time = 120

smoothSolver:  Solving for Ux, Initial residual = 0.000255959105278, Final residual = 2.18591995029e-05, No Iterations 4
smoothSolver:  Solving for Uy, Initial residual = 0.000689205561021, Final residual = 6.01868140095e-05, No Iterations 4
smoothSolver:  Solving for Uz, Initial residual = 0.000296202625416, Final residual = 2.53408885454e-05, No Iterations 4
GAMG:  Solving for p, Initial residual = 7.17873796264e-05, Final residual = 3.3360948433e-06, No Iterations 9
time step continuity errors : sum local = 6.34348425917e-05, global = -1.25351354723e-07, cumulative = 0.161274845139
ExecutionTime = 8.22 s  ClockTime = 9 s

Time = 121

smoothSolver:  Solving for Ux, Initial residual = 0.000254943406485, Final residual = 2.17795025776e-05, No Iterations 4
smoothSolver:  Solving for Uy, Initial residual = 0.000682784466146, Final residual = 5.96338307787e-05, No Iterations 4
smoothSolver:  Solving for Uz, Initial residual = 0.000293732303901, Final residual = 2.5131650619e-05, No Iterations 4
GAMG:  Solving for p, Initial residual = 6.88466661172e-05, Final residual = 2.36902235299e-06, No Iterations 9
time step continuity errors : sum local = 4.49266436251e-05, global = 8.79077748781e-07, cumulative = 0.161275724217
ExecutionTime = 8.29 s  ClockTime = 9 s

Time = 122

smoothSolver:  Solving for Ux, Initial residual = 0.000253972604945, Final residual = 2.16991816024e-05, No Iterations 4
smoothSolver:  Solving for Uy, Initial residual = 0.000678147755633, Final residual = 5.92274845384e-05, No Iterations 4
smoothSolver:  Solving for Uz, Initial residual = 0.000291271201169, Final residual = 2.49232127713e-05, No Iterations 4
GAMG:  Solving for p, Initial residual = 6.70378492871e-05, Final residual = 3.02145261902e-06, No Iterations 9
time step continuity errors : sum local = 5.71467701224e-05, global = -3.53274686259e-07, cumulative = 0.161275370942
ExecutionTime = 8.36 s  ClockTime = 9 s

Time = 123

smoothSolver:  Solving for Ux, Initial residual = 0.000252978985115, Final residual = 2.16182415971e-05, No Iterations 4
smoothSolver:  Solving for Uy, Initial residual = 0.000672576683385, Final residual = 5.87418738173e-05, No Iterations 4
[...]
smoothSolver:  Solving for Uy, Initial residual = 0.00012184105056, Final residual = 1.08854743331e-05, No Iterations 4
smoothSolver:  Solving for Uz, Initial residual = 3.48526162133e-05, Final residual = 5.52768439953e-06, No Iterations 3
GAMG:  Solving for p, Initial residual = 4.71234620822e-06, Final residual = 4.3088923465e-07, No Iterations 8
time step continuity errors : sum local = 6.12685508498e-06, global = 5.93910530279e-08, cumulative = 0.161309488213
ExecutionTime = 26.51 s  ClockTime = 27 s

Time = 381

smoothSolver:  Solving for Ux, Initial residual = 7.59576644149e-05, Final residual = 6.63749247645e-06, No Iterations 4
smoothSolver:  Solving for Uy, Initial residual = 0.000121178588485, Final residual = 1.0826870712e-05, No Iterations 4
smoothSolver:  Solving for Uz, Initial residual = 3.45992655763e-05, Final residual = 5.48754985537e-06, No Iterations 3
GAMG:  Solving for p, Initial residual = 4.63468069999e-06, Final residual = 9.77298503738e-07, No Iterations 6
time step continuity errors : sum local = 1.38911215141e-05, global = 2.41213902163e-07, cumulative = 0.161309729427
ExecutionTime = 26.58 s  ClockTime = 27 s

Time = 382

smoothSolver:  Solving for Ux, Initial residual = 7.56375166925e-05, Final residual = 6.60968100954e-06, No Iterations 4
smoothSolver:  Solving for Uy, Initial residual = 0.000120723451306, Final residual = 1.0787105237e-05, No Iterations 4
smoothSolver:  Solving for Uz, Initial residual = 3.43484795527e-05, Final residual = 5.44785484789e-06, No Iterations 3
GAMG:  Solving for p, Initial residual = 4.6902087727e-06, Final residual = 8.36478323479e-07, No Iterations 7
time step continuity errors : sum local = 1.18852811676e-05, global = 1.36700216049e-07, cumulative = 0.161309866127
ExecutionTime = 26.64 s  ClockTime = 27 s

Time = 383

smoothSolver:  Solving for Ux, Initial residual = 7.52918414346e-05, Final residual = 6.58232916258e-06, No Iterations 4
smoothSolver:  Solving for Uy, Initial residual = 0.000119781143787, Final residual = 1.07042652589e-05, No Iterations 4
smoothSolver:  Solving for Uz, Initial residual = 3.4102220511e-05, Final residual = 9.96258285296e-06, No Iterations 2
GAMG:  Solving for p, Initial residual = 1.16148641049e-05, Final residual = 8.05840408317e-07, No Iterations 6
time step continuity errors : sum local = 1.1445891493e-05, global = 5.07790472817e-08, cumulative = 0.161309916906
ExecutionTime = 26.71 s  ClockTime = 27 s

Time = 384

smoothSolver:  Solving for Ux, Initial residual = 7.4969331067e-05, Final residual = 6.55741427485e-06, No Iterations 4
smoothSolver:  Solving for Uy, Initial residual = 0.000115668757449, Final residual = 1.03125006998e-05, No Iterations 4
smoothSolver:  Solving for Uz, Initial residual = 3.39725239142e-05, Final residual = 9.92587012872e-06, No Iterations 2
GAMG:  Solving for p, Initial residual = 1.10721619143e-05, Final residual = 9.8983121577e-07, No Iterations 4
time step continuity errors : sum local = 1.40558732512e-05, global = 3.35160852978e-07, cumulative = 0.161310252067
ExecutionTime = 26.77 s  ClockTime = 27 s

Time = 385

smoothSolver:  Solving for Ux, Initial residual = 7.46564572658e-05, Final residual = 6.53290631723e-06, No Iterations 4
smoothSolver:  Solving for Uy, Initial residual = 0.00011230363937, Final residual = 1.00007026289e-05, No Iterations 4
smoothSolver:  Solving for Uz, Initial residual = 3.38175326566e-05, Final residual = 9.88155597017e-06, No Iterations 2
GAMG:  Solving for p, Initial residual = 9.33546726539e-06, Final residual = 6.98363827289e-07, No Iterations 7
time step continuity errors : sum local = 9.91481797088e-06, global = 1.81616326616e-07, cumulative = 0.161310433683
ExecutionTime = 26.84 s  ClockTime = 27 s

Time = 386

smoothSolver:  Solving for Ux, Initial residual = 7.43931740766e-05, Final residual = 6.50870601618e-06, No Iterations 4
smoothSolver:  Solving for Uy, Initial residual = 0.000110361236627, Final residual = 9.82343814169e-06, No Iterations 4
smoothSolver:  Solving for Uz, Initial residual = 3.36362127408e-05, Final residual = 9.82900309302e-06, No Iterations 2
GAMG:  Solving for p, Initial residual = 7.71016805183e-06, Final residual = 8.88592741746e-07, No Iterations 5
time step continuity errors : sum local = 1.26116190392e-05, global = 5.15490248015e-09, cumulative = 0.161310438838
ExecutionTime = 26.9 s  ClockTime = 27 s

Time = 387

smoothSolver:  Solving for Ux, Initial residual = 7.40999139917e-05, Final residual = 6.48325509466e-06, No Iterations 4
smoothSolver:  Solving for Uy, Initial residual = 0.000109456545464, Final residual = 9.74335981034e-06, No Iterations 4
smoothSolver:  Solving for Uz, Initial residual = 3.34340312847e-05, Final residual = 9.77042036617e-06, No Iterations 2
GAMG:  Solving for p, Initial residual = 6.9808627832e-06, Final residual = 9.38511347095e-07, No Iterations 5
time step continuity errors : sum local = 1.33160727389e-05, global = -1.3136978418e-07, cumulative = 0.161310307469
ExecutionTime = 26.97 s  ClockTime = 27 s

Time = 388

smoothSolver:  Solving for Ux, Initial residual = 7.3827258871e-05, Final residual = 6.45770095966e-06, No Iterations 4
smoothSolver:  Solving for Uy, Initial residual = 0.000108952700184, Final residual = 9.69641318423e-06, No Iterations 4
smoothSolver:  Solving for Uz, Initial residual = 3.32255446184e-05, Final residual = 9.71006910375e-06, No Iterations 2
GAMG:  Solving for p, Initial residual = 6.21344036441e-06, Final residual = 8.60494515559e-07, No Iterations 6
time step continuity errors : sum local = 1.22054927405e-05, global = -7.71400269215e-08, cumulative = 0.161310230329
ExecutionTime = 27.04 s  ClockTime = 27 s

Time = 389

smoothSolver:  Solving for Ux, Initial residual = 7.35069448017e-05, Final residual = 6.43048664475e-06, No Iterations 4
smoothSolver:  Solving for Uy, Initial residual = 0.000108959059148, Final residual = 9.69798476005e-06, No Iterations 4
smoothSolver:  Solving for Uz, Initial residual = 3.30122898596e-05, Final residual = 9.6481468483e-06, No Iterations 2
GAMG:  Solving for p, Initial residual = 5.7413225509e-06, Final residual = 8.34227327373e-07, No Iterations 6
time step continuity errors : sum local = 1.18292567913e-05, global = -5.79265955103e-08, cumulative = 0.161310172402
ExecutionTime = 27.1 s  ClockTime = 28 s

Time = 390

smoothSolver:  Solving for Ux, Initial residual = 7.32150364737e-05, Final residual = 6.40541395527e-06, No Iterations 4
smoothSolver:  Solving for Uy, Initial residual = 0.000108715255292, Final residual = 9.6768617997e-06, No Iterations 4
smoothSolver:  Solving for Uz, Initial residual = 3.28030991172e-05, Final residual = 9.58731760768e-06, No Iterations 2
GAMG:  Solving for p, Initial residual = 5.46492686473e-06, Final residual = 8.64584910422e-07, No Iterations 6
time step continuity errors : sum local = 1.22559618815e-05, global = 3.24831024821e-08, cumulative = 0.161310204885
ExecutionTime = 27.17 s  ClockTime = 28 s

Time = 391

smoothSolver:  Solving for Ux, Initial residual = 7.29285273711e-05, Final residual = 6.37873180246e-06, No Iterations 4
smoothSolver:  Solving for Uy, Initial residual = 0.000108551624784, Final residual = 9.66365772912e-06, No Iterations 4
smoothSolver:  Solving for Uz, Initial residual = 3.25956861782e-05, Final residual = 9.52696317509e-06, No Iterations 2
GAMG:  Solving for p, Initial residual = 5.22965613946e-06, Final residual = 8.55513952905e-07, No Iterations 6
time step continuity errors : sum local = 1.21236325008e-05, global = -2.57054603947e-08, cumulative = 0.16131017918
ExecutionTime = 27.24 s  ClockTime = 28 s

Time = 392

smoothSolver:  Solving for Ux, Initial residual = 7.26249409686e-05, Final residual = 6.35276575868e-06, No Iterations 4
smoothSolver:  Solving for Uy, Initial residual = 0.00010817336422, Final residual = 9.62989645428e-06, No Iterations 4
smoothSolver:  Solving for Uz, Initial residual = 3.2391239398e-05, Final residual = 9.467508872e-06, No Iterations 2
GAMG:  Solving for p, Initial residual = 4.89944185276e-06, Final residual = 6.22628507114e-07, No Iterations 7
time step continuity errors : sum local = 8.82073710415e-06, global = 9.77761669963e-08, cumulative = 0.161310276956
ExecutionTime = 27.3 s  ClockTime = 28 s

Time = 393

smoothSolver:  Solving for Ux, Initial residual = 7.23154812411e-05, Final residual = 6.32630908036e-06, No Iterations 4
smoothSolver:  Solving for Uy, Initial residual = 0.000107718080143, Final residual = 9.58919374881e-06, No Iterations 4
smoothSolver:  Solving for Uz, Initial residual = 3.2186734612e-05, Final residual = 9.4079887341e-06, No Iterations 2
GAMG:  Solving for p, Initial residual = 4.62720924972e-06, Final residual = 9.46846475949e-07, No Iterations 4
time step continuity errors : sum local = 1.34098469406e-05, global = 1.09252718888e-07, cumulative = 0.161310386208
ExecutionTime = 27.37 s  ClockTime = 28 s

Time = 394

smoothSolver:  Solving for Ux, Initial residual = 7.20144006514e-05, Final residual = 6.30026483791e-06, No Iterations 4
smoothSolver:  Solving for Uy, Initial residual = 0.000107061145215, Final residual = 9.53199744983e-06, No Iterations 4
smoothSolver:  Solving for Uz, Initial residual = 3.1988951552e-05, Final residual = 9.35057303912e-06, No Iterations 2
GAMG:  Solving for p, Initial residual = 4.22604445357e-06, Final residual = 8.02987520715e-07, No Iterations 6
time step continuity errors : sum local = 1.13695190185e-05, global = -2.8879564323e-08, cumulative = 0.161310357329
ExecutionTime = 27.43 s  ClockTime = 28 s

Time = 395

smoothSolver:  Solving for Ux, Initial residual = 7.17127977441e-05, Final residual = 6.27401513756e-06, No Iterations 4
smoothSolver:  Solving for Uy, Initial residual = 0.000106895431613, Final residual = 9.51694862658e-06, No Iterations 4
smoothSolver:  Solving for Uz, Initial residual = 3.17877463434e-05, Final residual = 9.29181111024e-06, No Iterations 2
GAMG:  Solving for p, Initial residual = 4.59621312037e-06, Final residual = 9.80895148438e-07, No Iterations 4
time step continuity errors : sum local = 1.38837551616e-05, global = 1.22222035951e-07, cumulative = 0.161310479551
ExecutionTime = 27.5 s  ClockTime = 28 s

Time = 396

smoothSolver:  Solving for Ux, Initial residual = 7.13829236453e-05, Final residual = 6.24694011059e-06, No Iterations 4
smoothSolver:  Solving for Uy, Initial residual = 0.000106437710766, Final residual = 9.47792125939e-06, No Iterations 4
smoothSolver:  Solving for Uz, Initial residual = 3.15898496821e-05, Final residual = 9.23421926099e-06, No Iterations 2
GAMG:  Solving for p, Initial residual = 4.2394570856e-06, Final residual = 4.60216155097e-07, No Iterations 7
time step continuity errors : sum local = 6.51210351165e-06, global = 1.21600356607e-07, cumulative = 0.161310601151
ExecutionTime = 27.56 s  ClockTime = 28 s

Time = 397

smoothSolver:  Solving for Ux, Initial residual = 7.11307285765e-05, Final residual = 6.22088137322e-06, No Iterations 4
smoothSolver:  Solving for Uy, Initial residual = 0.000105674045064, Final residual = 9.41059584134e-06, No Iterations 4
smoothSolver:  Solving for Uz, Initial residual = 3.13941549986e-05, Final residual = 9.17719535936e-06, No Iterations 2
GAMG:  Solving for p, Initial residual = 4.00082147176e-06, Final residual = 9.64494213042e-07, No Iterations 6
time step continuity errors : sum local = 1.36435674495e-05, global = 2.33852751109e-07, cumulative = 0.161310835004
ExecutionTime = 27.63 s  ClockTime = 28 s

Time = 398

smoothSolver:  Solving for Ux, Initial residual = 7.08051845181e-05, Final residual = 6.19430139897e-06, No Iterations 4
smoothSolver:  Solving for Uy, Initial residual = 0.000105282784233, Final residual = 9.37672170666e-06, No Iterations 4
smoothSolver:  Solving for Uz, Initial residual = 3.11980255931e-05, Final residual = 9.12005694785e-06, No Iterations 2
GAMG:  Solving for p, Initial residual = 4.15459531921e-06, Final residual = 9.48680471579e-07, No Iterations 4
time step continuity errors : sum local = 1.34159603114e-05, global = 2.2096767729e-07, cumulative = 0.161311055972
ExecutionTime = 27.69 s  ClockTime = 28 s

Time = 399

smoothSolver:  Solving for Ux, Initial residual = 7.05119024846e-05, Final residual = 6.16883235431e-06, No Iterations 4
smoothSolver:  Solving for Uy, Initial residual = 0.000104450268952, Final residual = 9.30292488929e-06, No Iterations 4
smoothSolver:  Solving for Uz, Initial residual = 3.10054155593e-05, Final residual = 9.06414975767e-06, No Iterations 2
GAMG:  Solving for p, Initial residual = 3.65547107608e-06, Final residual = 7.19122076831e-07, No Iterations 6
time step continuity errors : sum local = 1.01671792084e-05, global = -4.94977080959e-08, cumulative = 0.161311006474
ExecutionTime = 27.76 s  ClockTime = 28 s

Time = 400

smoothSolver:  Solving for Ux, Initial residual = 7.02237766323e-05, Final residual = 6.14231311032e-06, No Iterations 4
smoothSolver:  Solving for Uy, Initial residual = 0.000104363152491, Final residual = 9.29541301928e-06, No Iterations 4
smoothSolver:  Solving for Uz, Initial residual = 3.08105898427e-05, Final residual = 9.00717773535e-06, No Iterations 2
GAMG:  Solving for p, Initial residual = 4.13171541288e-06, Final residual = 9.88998799138e-07, No Iterations 4
time step continuity errors : sum local = 1.39781208719e-05, global = 1.6772713849e-07, cumulative = 0.161311174201
ExecutionTime = 27.82 s  ClockTime = 28 s

    writing object shearStress
Time = 401

smoothSolver:  Solving for Ux, Initial residual = 6.99141166011e-05, Final residual = 6.11611966071e-06, No Iterations 4
smoothSolver:  Solving for Uy, Initial residual = 0.000103960417948, Final residual = 9.26132328853e-06, No Iterations 4
smoothSolver:  Solving for Uz, Initial residual = 3.0618375509e-05, Final residual = 8.95118253125e-06, No Iterations 2
GAMG:  Solving for p, Initial residual = 3.94454507865e-06, Final residual = 4.54130980743e-07, No Iterations 7
time step continuity errors : sum local = 6.41669594664e-06, global = 1.15990531776e-07, cumulative = 0.161311290192
ExecutionTime = 27.92 s  ClockTime = 28 s

Time = 402

smoothSolver:  Solving for Ux, Initial residual = 6.96131022554e-05, Final residual = 6.09093178526e-06, No Iterations 4
smoothSolver:  Solving for Uy, Initial residual = 0.000103322373938, Final residual = 9.203552245e-06, No Iterations 4
smoothSolver:  Solving for Uz, Initial residual = 3.04277611716e-05, Final residual = 8.89562409872e-06, No Iterations 2
GAMG:  Solving for p, Initial residual = 3.77903342056e-06, Final residual = 9.84406772421e-07, No Iterations 4
time step continuity errors : sum local = 1.39052365175e-05, global = 1.11972621484e-07, cumulative = 0.161311402164
ExecutionTime = 27.99 s  ClockTime = 28 s

Time = 403

smoothSolver:  Solving for Ux, Initial residual = 6.93109506165e-05, Final residual = 6.06414503944e-06, No Iterations 4
smoothSolver:  Solving for Uy, Initial residual = 0.000102941704728, Final residual = 9.17193336311e-06, No Iterations 4
smoothSolver:  Solving for Uz, Initial residual = 3.02381419584e-05, Final residual = 8.8403625545e-06, No Iterations 2
GAMG:  Solving for p, Initial residual = 3.77211671368e-06, Final residual = 4.61914480838e-07, No Iterations 7
time step continuity errors : sum local = 6.52300378868e-06, global = 1.21540485779e-07, cumulative = 0.161311523705
ExecutionTime = 28.05 s  ClockTime = 29 s

Time = 404

smoothSolver:  Solving for Ux, Initial residual = 6.90298395541e-05, Final residual = 6.03934751284e-06, No Iterations 4
smoothSolver:  Solving for Uy, Initial residual = 0.000102301927465, Final residual = 9.11600106309e-06, No Iterations 4
smoothSolver:  Solving for Uz, Initial residual = 3.00518234125e-05, Final residual = 8.78600519996e-06, No Iterations 2
GAMG:  Solving for p, Initial residual = 3.63752551274e-06, Final residual = 9.73817075641e-07, No Iterations 4
time step continuity errors : sum local = 1.37480031945e-05, global = 1.79696601233e-07, cumulative = 0.161311703401
ExecutionTime = 28.12 s  ClockTime = 29 s

Time = 405

smoothSolver:  Solving for Ux, Initial residual = 6.87365470389e-05, Final residual = 6.01273667121e-06, No Iterations 4
smoothSolver:  Solving for Uy, Initial residual = 0.000101988201837, Final residual = 9.08992394349e-06, No Iterations 4
smoothSolver:  Solving for Uz, Initial residual = 2.98647022155e-05, Final residual = 8.73144649719e-06, No Iterations 2
GAMG:  Solving for p, Initial residual = 3.74145985889e-06, Final residual = 4.58511157498e-07, No Iterations 7
time step continuity errors : sum local = 6.47133987889e-06, global = 1.0752325274e-07, cumulative = 0.161311810925
ExecutionTime = 28.18 s  ClockTime = 29 s

Time = 406

smoothSolver:  Solving for Ux, Initial residual = 6.84558974296e-05, Final residual = 5.98878006493e-06, No Iterations 4
smoothSolver:  Solving for Uy, Initial residual = 0.00010148224554, Final residual = 9.04375680417e-06, No Iterations 4
smoothSolver:  Solving for Uz, Initial residual = 2.96793365785e-05, Final residual = 8.67738688885e-06, No Iterations 2
GAMG:  Solving for p, Initial residual = 3.70303653588e-06, Final residual = 9.72560037268e-07, No Iterations 4
time step continuity errors : sum local = 1.37226088625e-05, global = 1.59696161532e-07, cumulative = 0.161311970621
ExecutionTime = 28.24 s  ClockTime = 29 s

Time = 407

smoothSolver:  Solving for Ux, Initial residual = 6.81456898156e-05, Final residual = 5.96317022015e-06, No Iterations 4
smoothSolver:  Solving for Uy, Initial residual = 0.000101135995957, Final residual = 9.01470822595e-06, No Iterations 4
smoothSolver:  Solving for Uz, Initial residual = 2.94948150979e-05, Final residual = 8.62358152208e-06, No Iterations 2
GAMG:  Solving for p, Initial residual = 3.73310245073e-06, Final residual = 4.28438235253e-07, No Iterations 7
time step continuity errors : sum local = 6.043550733e-06, global = 1.16298632421e-07, cumulative = 0.161312086919
ExecutionTime = 28.31 s  ClockTime = 29 s

Time = 408

smoothSolver:  Solving for Ux, Initial residual = 6.7858560476e-05, Final residual = 5.93800224368e-06, No Iterations 4
smoothSolver:  Solving for Uy, Initial residual = 0.000100519299812, Final residual = 8.96046470052e-06, No Iterations 4
smoothSolver:  Solving for Uz, Initial residual = 2.93134648716e-05, Final residual = 8.57064105082e-06, No Iterations 2
GAMG:  Solving for p, Initial residual = 3.64374035746e-06, Final residual = 9.80002545102e-07, No Iterations 4
time step continuity errors : sum local = 1.38200201683e-05, global = 1.7051810165e-07, cumulative = 0.161312257438
ExecutionTime = 28.37 s  ClockTime = 29 s

Time = 409

smoothSolver:  Solving for Ux, Initial residual = 6.75574558357e-05, Final residual = 5.9123710104e-06, No Iterations 4
smoothSolver:  Solving for Uy, Initial residual = 0.000100203076779, Final residual = 8.93420293585e-06, No Iterations 4
smoothSolver:  Solving for Uz, Initial residual = 2.91313491048e-05, Final residual = 8.51751496652e-06, No Iterations 2
GAMG:  Solving for p, Initial residual = 3.68247611651e-06, Final residual = 4.48581359123e-07, No Iterations 7
time step continuity errors : sum local = 6.32421766625e-06, global = 1.12189013174e-07, cumulative = 0.161312369627
ExecutionTime = 28.44 s  ClockTime = 29 s

Time = 410

smoothSolver:  Solving for Ux, Initial residual = 6.73096799493e-05, Final residual = 5.88838353772e-06, No Iterations 4
smoothSolver:  Solving for Uy, Initial residual = 9.96905246307e-05, Final residual = 8.88733376121e-06, No Iterations 4
smoothSolver:  Solving for Uz, Initial residual = 2.89508444065e-05, Final residual = 8.46485989272e-06, No Iterations 2
GAMG:  Solving for p, Initial residual = 3.56914099973e-06, Final residual = 9.46789686347e-07, No Iterations 4
time step continuity errors : sum local = 1.33443674992e-05, global = 1.46929611292e-07, cumulative = 0.161312516556
ExecutionTime = 28.5 s  ClockTime = 29 s


SIMPLE solution converged in 410 iterations

End

Finalising parallel run
