/*---------------------------------------------------------------------------*\
  =========                 |
  \\      /  F ield         | OpenFOAM: The Open Source CFD Toolbox
   \\    /   O peration     | Website:  https://openfoam.org
    \\  /    A nd           | Version:  9
     \\/     M anipulation  |
\*---------------------------------------------------------------------------*/
Build  : 9-b456138dc4bc
Exec   : simpleFoam -parallel
Date   : Apr 12 2022
Time   : 12:42:39
Host   : "KORIN-LAB"
PID    : 6231
I/O    : uncollated
Case   : /home/colin/OpenFOAM/colin-9/run/wsl/wedge_needle/55_temp/45_needle_layer
nProcs : 6
Slaves : 
5
(
"KORIN-LAB.6232"
"KORIN-LAB.6233"
"KORIN-LAB.6234"
"KORIN-LAB.6235"
"KORIN-LAB.6236"
)

Pstream initialised with:
    floatTransfer      : 0
    nProcsSimpleSum    : 0
    commsType          : nonBlocking
    polling iterations : 0
sigFpe : Enabling floating point exception trapping (FOAM_SIGFPE).
fileModificationChecking : Monitoring run-time modified files using timeStampMaster (fileModificationSkew 10)
allowSystemOperations : Allowing user-supplied system call operations

// * * * * * * * * * * * * * * * * * * * * * * * * * * * * * * * * * * * * * //
Create time

Create mesh for time = 0


SIMPLE: Convergence criteria found
        p: tolerance 0.001
        U: tolerance 0.0001
        "(k|epsilon|omega|f|v2)": tolerance 0.0001

Reading field p

Reading field U

Reading/calculating face flux field phi

Selecting incompressible transport model powerLaw
Selecting turbulence model type laminar
Selecting laminar stress model Stokes
No MRF models present

No fvModels present
No fvConstraints present

Starting time loop

wallShearStress wallShearStress:
    processing all wall patches

Time = 1

smoothSolver:  Solving for Ux, Initial residual = 0.315594048927, Final residual = 0.030613141363, No Iterations 2
smoothSolver:  Solving for Uy, Initial residual = 0.999999999989, Final residual = 0.0632641193733, No Iterations 2
smoothSolver:  Solving for Uz, Initial residual = 1, Final residual = 0.0956769044368, No Iterations 2
GAMG:  Solving for p, Initial residual = 0.999999999986, Final residual = 0.0264200217787, No Iterations 22
time step continuity errors : sum local = 0.0143980571689, global = -0.000112696640908, cumulative = -0.000112696640908
ExecutionTime = 0.11 s  ClockTime = 0 s

Time = 2

smoothSolver:  Solving for Ux, Initial residual = 0.45282417266, Final residual = 0.0373540519515, No Iterations 3
smoothSolver:  Solving for Uy, Initial residual = 0.728053817693, Final residual = 0.0625022646579, No Iterations 4
smoothSolver:  Solving for Uz, Initial residual = 0.584015147757, Final residual = 0.0491297924623, No Iterations 4
GAMG:  Solving for p, Initial residual = 0.00616833858169, Final residual = 0.000206219127888, No Iterations 8
time step continuity errors : sum local = 5.74304846138, global = -0.00900671009188, cumulative = -0.00911940673278
ExecutionTime = 0.16 s  ClockTime = 0 s

Time = 3

smoothSolver:  Solving for Ux, Initial residual = 0.632878506532, Final residual = 0.0300652630101, No Iterations 2
smoothSolver:  Solving for Uy, Initial residual = 0.0963098124364, Final residual = 0.00761229047437, No Iterations 4
smoothSolver:  Solving for Uz, Initial residual = 0.0546032347894, Final residual = 0.00448674818721, No Iterations 4
GAMG:  Solving for p, Initial residual = 0.00642205109911, Final residual = 0.000229808808014, No Iterations 10
time step continuity errors : sum local = 2.73158151625, global = 0.0018814652423, cumulative = -0.00723794149048
ExecutionTime = 0.22 s  ClockTime = 0 s

Time = 4

smoothSolver:  Solving for Ux, Initial residual = 0.241655440335, Final residual = 0.0121060645318, No Iterations 3
smoothSolver:  Solving for Uy, Initial residual = 0.0467893575424, Final residual = 0.00391587929559, No Iterations 4
smoothSolver:  Solving for Uz, Initial residual = 0.00984199067048, Final residual = 0.000886650941497, No Iterations 3
GAMG:  Solving for p, Initial residual = 0.394949288726, Final residual = 0.0178781530192, No Iterations 6
time step continuity errors : sum local = 6.81671910995, global = -0.00331684951008, cumulative = -0.0105547910006
ExecutionTime = 0.28 s  ClockTime = 0 s

Time = 5

smoothSolver:  Solving for Ux, Initial residual = 0.0206289782961, Final residual = 0.00126150565458, No Iterations 3
smoothSolver:  Solving for Uy, Initial residual = 0.0150449305878, Final residual = 0.00110301802143, No Iterations 4
smoothSolver:  Solving for Uz, Initial residual = 0.0391700580777, Final residual = 0.00310054481067, No Iterations 4
GAMG:  Solving for p, Initial residual = 0.0188996888832, Final residual = 0.000893398051927, No Iterations 6
time step continuity errors : sum local = 3.40846672458, global = -0.0316582089969, cumulative = -0.0422129999975
ExecutionTime = 0.35 s  ClockTime = 0 s

Time = 6

smoothSolver:  Solving for Ux, Initial residual = 0.00674155033064, Final residual = 0.000633388602687, No Iterations 2
smoothSolver:  Solving for Uy, Initial residual = 0.133050046954, Final residual = 0.0110851925393, No Iterations 4
smoothSolver:  Solving for Uz, Initial residual = 0.0778541633879, Final residual = 0.0065190612608, No Iterations 4
GAMG:  Solving for p, Initial residual = 0.0109326959938, Final residual = 0.000332716297264, No Iterations 9
time step continuity errors : sum local = 1.03919148122, global = -0.000569862017279, cumulative = -0.0427828620148
ExecutionTime = 0.4 s  ClockTime = 0 s

Time = 7

smoothSolver:  Solving for Ux, Initial residual = 0.0096486515258, Final residual = 0.000577783080198, No Iterations 3
smoothSolver:  Solving for Uy, Initial residual = 0.119493066792, Final residual = 0.0101744269155, No Iterations 4
smoothSolver:  Solving for Uz, Initial residual = 0.102064240352, Final residual = 0.00794825338519, No Iterations 4
GAMG:  Solving for p, Initial residual = 0.0551188858917, Final residual = 0.00265838151518, No Iterations 6
time step continuity errors : sum local = 3.03150780144, global = -0.00256220873684, cumulative = -0.0453450707516
ExecutionTime = 0.45 s  ClockTime = 0 s

Time = 8

smoothSolver:  Solving for Ux, Initial residual = 0.0102684769715, Final residual = 0.000754648808359, No Iterations 3
smoothSolver:  Solving for Uy, Initial residual = 0.0354000651225, Final residual = 0.00297740926084, No Iterations 4
smoothSolver:  Solving for Uz, Initial residual = 0.0449290708548, Final residual = 0.0032450309991, No Iterations 4
GAMG:  Solving for p, Initial residual = 0.238264159864, Final residual = 0.00851100988683, No Iterations 7
time step continuity errors : sum local = 1.61849236612, global = -0.00260472201719, cumulative = -0.0479497927688
ExecutionTime = 0.52 s  ClockTime = 0 s

Time = 9

smoothSolver:  Solving for Ux, Initial residual = 0.0100198497019, Final residual = 0.000900042390617, No Iterations 3
smoothSolver:  Solving for Uy, Initial residual = 0.0332138616946, Final residual = 0.00267856947894, No Iterations 4
smoothSolver:  Solving for Uz, Initial residual = 0.0264108219313, Final residual = 0.00218126715858, No Iterations 4
GAMG:  Solving for p, Initial residual = 0.0253048047637, Final residual = 0.00105330593312, No Iterations 6
time step continuity errors : sum local = 0.667883855657, global = 0.00572584080397, cumulative = -0.0422239519648
ExecutionTime = 0.59 s  ClockTime = 0 s

Time = 10

smoothSolver:  Solving for Ux, Initial residual = 0.0105198541186, Final residual = 0.00093147674046, No Iterations 3
smoothSolver:  Solving for Uy, Initial residual = 0.15165601901, Final residual = 0.0129094577248, No Iterations 4
smoothSolver:  Solving for Uz, Initial residual = 0.0153990225861, Final residual = 0.0013145475589, No Iterations 4
GAMG:  Solving for p, Initial residual = 0.0206540880828, Final residual = 0.000856167829748, No Iterations 7
time step continuity errors : sum local = 0.493297845325, global = 0.000583347430967, cumulative = -0.0416406045339
ExecutionTime = 0.65 s  ClockTime = 0 s

Time = 11

smoothSolver:  Solving for Ux, Initial residual = 0.00879481394709, Final residual = 0.000676296350776, No Iterations 3
smoothSolver:  Solving for Uy, Initial residual = 0.13184192107, Final residual = 0.011271339316, No Iterations 4
smoothSolver:  Solving for Uz, Initial residual = 0.00825665944613, Final residual = 0.000688339312466, No Iterations 4
GAMG:  Solving for p, Initial residual = 0.0542510111962, Final residual = 0.00156598118629, No Iterations 7
time step continuity errors : sum local = 0.449469688815, global = 0.000524239619893, cumulative = -0.041116364914
ExecutionTime = 0.69 s  ClockTime = 0 s

Time = 12

smoothSolver:  Solving for Ux, Initial residual = 0.00526477467361, Final residual = 0.000429738153347, No Iterations 3
smoothSolver:  Solving for Uy, Initial residual = 0.0392353139048, Final residual = 0.00318404900561, No Iterations 4
smoothSolver:  Solving for Uz, Initial residual = 0.00427475051952, Final residual = 0.000329466401295, No Iterations 4
GAMG:  Solving for p, Initial residual = 0.191590738274, Final residual = 0.00663601465295, No Iterations 7
time step continuity errors : sum local = 0.389164563445, global = 0.00061897172212, cumulative = -0.0404973931919
ExecutionTime = 0.75 s  ClockTime = 0 s

Time = 13

smoothSolver:  Solving for Ux, Initial residual = 0.00289108409745, Final residual = 0.000151356106349, No Iterations 4
smoothSolver:  Solving for Uy, Initial residual = 0.0461105973704, Final residual = 0.00361910967249, No Iterations 4
smoothSolver:  Solving for Uz, Initial residual = 0.00288713884473, Final residual = 0.000205613740142, No Iterations 4
GAMG:  Solving for p, Initial residual = 0.0877669731665, Final residual = 0.002637112937, No Iterations 7
time step continuity errors : sum local = 0.160118297855, global = 7.98621359648e-05, cumulative = -0.0404175310559
ExecutionTime = 0.8 s  ClockTime = 0 s

Time = 14

smoothSolver:  Solving for Ux, Initial residual = 0.00271950964626, Final residual = 0.000174545867714, No Iterations 4
smoothSolver:  Solving for Uy, Initial residual = 0.183876701515, Final residual = 0.0155278652704, No Iterations 4
smoothSolver:  Solving for Uz, Initial residual = 0.00314626972506, Final residual = 0.00024729380129, No Iterations 4
GAMG:  Solving for p, Initial residual = 0.0580710988016, Final residual = 0.00129252601537, No Iterations 7
time step continuity errors : sum local = 0.0757510799284, global = -0.000347764932725, cumulative = -0.0407652959886
ExecutionTime = 0.85 s  ClockTime = 0 s

Time = 15

smoothSolver:  Solving for Ux, Initial residual = 0.00319589073904, Final residual = 0.000205457801484, No Iterations 4
smoothSolver:  Solving for Uy, Initial residual = 0.0831219453734, Final residual = 0.0070448510847, No Iterations 4
smoothSolver:  Solving for Uz, Initial residual = 0.00301096814592, Final residual = 0.000246950568827, No Iterations 4
GAMG:  Solving for p, Initial residual = 0.165446026895, Final residual = 0.00698188188299, No Iterations 6
time step continuity errors : sum local = 0.149742788845, global = -1.35032887591e-05, cumulative = -0.0407787992774
ExecutionTime = 0.91 s  ClockTime = 0 s

Time = 16

smoothSolver:  Solving for Ux, Initial residual = 0.00347239242727, Final residual = 0.00022930551451, No Iterations 4
smoothSolver:  Solving for Uy, Initial residual = 0.0421960572446, Final residual = 0.00348049876055, No Iterations 4
smoothSolver:  Solving for Uz, Initial residual = 0.00268204251294, Final residual = 0.000222354392445, No Iterations 4
GAMG:  Solving for p, Initial residual = 0.0704680010963, Final residual = 0.00184665335782, No Iterations 7
time step continuity errors : sum local = 0.0745236813856, global = -5.06090376421e-05, cumulative = -0.040829408315
ExecutionTime = 0.98 s  ClockTime = 1 s

Time = 17

smoothSolver:  Solving for Ux, Initial residual = 0.00355091362261, Final residual = 0.000244736971303, No Iterations 4
smoothSolver:  Solving for Uy, Initial residual = 0.0302495942399, Final residual = 0.0023245660318, No Iterations 4
smoothSolver:  Solving for Uz, Initial residual = 0.00236663314277, Final residual = 0.000197905077315, No Iterations 4
GAMG:  Solving for p, Initial residual = 0.0332462931437, Final residual = 0.00108864564152, No Iterations 6
time step continuity errors : sum local = 0.0623217142458, global = -8.07517433013e-05, cumulative = -0.0409101600583
ExecutionTime = 1.04 s  ClockTime = 1 s

Time = 18

smoothSolver:  Solving for Ux, Initial residual = 0.00357845710272, Final residual = 0.000251019232387, No Iterations 4
smoothSolver:  Solving for Uy, Initial residual = 0.0314666813538, Final residual = 0.00245577212498, No Iterations 4
smoothSolver:  Solving for Uz, Initial residual = 0.00197228425553, Final residual = 0.000163947619456, No Iterations 4
GAMG:  Solving for p, Initial residual = 0.0230874443738, Final residual = 0.00107843119689, No Iterations 6
time step continuity errors : sum local = 0.0636946949104, global = 0.000513834541253, cumulative = -0.0403963255171
ExecutionTime = 1.09 s  ClockTime = 1 s

Time = 19

smoothSolver:  Solving for Ux, Initial residual = 0.00353267736811, Final residual = 0.00025424992325, No Iterations 4
smoothSolver:  Solving for Uy, Initial residual = 0.0292008344519, Final residual = 0.00224613465828, No Iterations 4
smoothSolver:  Solving for Uz, Initial residual = 0.00167165401079, Final residual = 0.000137816050278, No Iterations 4
GAMG:  Solving for p, Initial residual = 0.022861916217, Final residual = 0.000627315056505, No Iterations 7
time step continuity errors : sum local = 0.0346650861997, global = 3.90424668469e-05, cumulative = -0.0403572830502
ExecutionTime = 1.15 s  ClockTime = 1 s

Time = 20

smoothSolver:  Solving for Ux, Initial residual = 0.00347203379845, Final residual = 0.000258348473599, No Iterations 4
smoothSolver:  Solving for Uy, Initial residual = 0.0244956162636, Final residual = 0.00186737308619, No Iterations 4
smoothSolver:  Solving for Uz, Initial residual = 0.00165020376405, Final residual = 0.000138371844407, No Iterations 4
GAMG:  Solving for p, Initial residual = 0.0229045849881, Final residual = 0.000949522074367, No Iterations 5
time step continuity errors : sum local = 0.0446064205594, global = 0.000116240136435, cumulative = -0.0402410429138
ExecutionTime = 1.21 s  ClockTime = 1 s

Time = 21

smoothSolver:  Solving for Ux, Initial residual = 0.00351202359234, Final residual = 0.000268424851177, No Iterations 4
smoothSolver:  Solving for Uy, Initial residual = 0.0235733693398, Final residual = 0.0018292764239, No Iterations 4
smoothSolver:  Solving for Uz, Initial residual = 0.00162445931604, Final residual = 0.000137651280969, No Iterations 4
GAMG:  Solving for p, Initial residual = 0.0201348399752, Final residual = 0.000681604718307, No Iterations 5
time step continuity errors : sum local = 0.0280561222341, global = 4.28649992327e-05, cumulative = -0.0401981779145
ExecutionTime = 1.27 s  ClockTime = 1 s

Time = 22

smoothSolver:  Solving for Ux, Initial residual = 0.00369875668553, Final residual = 0.000285269287667, No Iterations 4
smoothSolver:  Solving for Uy, Initial residual = 0.0206220848058, Final residual = 0.00164807718717, No Iterations 4
smoothSolver:  Solving for Uz, Initial residual = 0.00151251871281, Final residual = 0.000128537972416, No Iterations 4
GAMG:  Solving for p, Initial residual = 0.0167441171859, Final residual = 0.000637921156168, No Iterations 4
time step continuity errors : sum local = 0.0240301434145, global = 5.20116789548e-05, cumulative = -0.0401461662356
ExecutionTime = 1.33 s  ClockTime = 1 s

Time = 23

smoothSolver:  Solving for Ux, Initial residual = 0.00395330962338, Final residual = 0.000306445553455, No Iterations 4
smoothSolver:  Solving for Uy, Initial residual = 0.0158094557083, Final residual = 0.00124389800175, No Iterations 4
smoothSolver:  Solving for Uz, Initial residual = 0.0013653203645, Final residual = 0.000115882276989, No Iterations 4
GAMG:  Solving for p, Initial residual = 0.0148971130833, Final residual = 0.000472955020307, No Iterations 6
time step continuity errors : sum local = 0.0173140369669, global = -7.43068624484e-05, cumulative = -0.040220473098
ExecutionTime = 1.39 s  ClockTime = 1 s

Time = 24

smoothSolver:  Solving for Ux, Initial residual = 0.00424439818462, Final residual = 0.000330951973194, No Iterations 4
smoothSolver:  Solving for Uy, Initial residual = 0.0114625046173, Final residual = 0.000859868436345, No Iterations 4
smoothSolver:  Solving for Uz, Initial residual = 0.00121558713187, Final residual = 0.00010251477331, No Iterations 4
GAMG:  Solving for p, Initial residual = 0.0140988956352, Final residual = 0.000602892215915, No Iterations 6
time step continuity errors : sum local = 0.021884012535, global = -9.6196486614e-05, cumulative = -0.0403166695847
ExecutionTime = 1.45 s  ClockTime = 1 s

Time = 25

smoothSolver:  Solving for Ux, Initial residual = 0.00454621134615, Final residual = 0.00035751402254, No Iterations 4
smoothSolver:  Solving for Uy, Initial residual = 0.00823024955584, Final residual = 0.000565524468531, No Iterations 4
smoothSolver:  Solving for Uz, Initial residual = 0.00110956035533, Final residual = 9.30965399778e-05, No Iterations 4
GAMG:  Solving for p, Initial residual = 0.012477248047, Final residual = 0.000592238790355, No Iterations 6
time step continuity errors : sum local = 0.0216377123851, global = -7.86339320042e-05, cumulative = -0.0403953035167
ExecutionTime = 1.51 s  ClockTime = 1 s

Time = 26

smoothSolver:  Solving for Ux, Initial residual = 0.0048735857417, Final residual = 0.000385998605274, No Iterations 4
smoothSolver:  Solving for Uy, Initial residual = 0.0070963588983, Final residual = 0.000469639446611, No Iterations 4
smoothSolver:  Solving for Uz, Initial residual = 0.0010879803488, Final residual = 9.17147432978e-05, No Iterations 4
GAMG:  Solving for p, Initial residual = 0.010473731567, Final residual = 0.000501581058324, No Iterations 5
time step continuity errors : sum local = 0.0184094969894, global = -6.03356198401e-05, cumulative = -0.0404556391365
ExecutionTime = 1.57 s  ClockTime = 1 s

Time = 27

smoothSolver:  Solving for Ux, Initial residual = 0.00523144733797, Final residual = 0.000416219100354, No Iterations 4
smoothSolver:  Solving for Uy, Initial residual = 0.00841410745788, Final residual = 0.000625048300237, No Iterations 4
smoothSolver:  Solving for Uz, Initial residual = 0.00113418674787, Final residual = 9.68343096126e-05, No Iterations 4
GAMG:  Solving for p, Initial residual = 0.00864504582652, Final residual = 0.00035915138529, No Iterations 4
time step continuity errors : sum local = 0.0130714497955, global = 3.1734067227e-05, cumulative = -0.0404239050693
ExecutionTime = 1.63 s  ClockTime = 1 s

Time = 28

smoothSolver:  Solving for Ux, Initial residual = 0.00564142829738, Final residual = 0.00045097132265, No Iterations 4
smoothSolver:  Solving for Uy, Initial residual = 0.00812010357673, Final residual = 0.000616924559308, No Iterations 4
smoothSolver:  Solving for Uz, Initial residual = 0.00113933296672, Final residual = 9.78138833333e-05, No Iterations 4
GAMG:  Solving for p, Initial residual = 0.00729222169624, Final residual = 0.000272432396739, No Iterations 4
time step continuity errors : sum local = 0.00978358692736, global = 8.80285773032e-05, cumulative = -0.040335876492
ExecutionTime = 1.68 s  ClockTime = 1 s

Time = 29

smoothSolver:  Solving for Ux, Initial residual = 0.00614239492146, Final residual = 0.000492026288271, No Iterations 4
smoothSolver:  Solving for Uy, Initial residual = 0.00720249222811, Final residual = 0.000545194015714, No Iterations 4
smoothSolver:  Solving for Uz, Initial residual = 0.00110228674071, Final residual = 9.47770271584e-05, No Iterations 4
GAMG:  Solving for p, Initial residual = 0.00645232596552, Final residual = 0.000221917002687, No Iterations 6
time step continuity errors : sum local = 0.00779426474092, global = 1.55594147314e-05, cumulative = -0.0403203170772
ExecutionTime = 1.74 s  ClockTime = 1 s

Time = 30

smoothSolver:  Solving for Ux, Initial residual = 0.00672271582282, Final residual = 0.000540883529262, No Iterations 4
smoothSolver:  Solving for Uy, Initial residual = 0.00625807260377, Final residual = 0.00047131775905, No Iterations 4
smoothSolver:  Solving for Uz, Initial residual = 0.0010261651349, Final residual = 8.7997763344e-05, No Iterations 4
GAMG:  Solving for p, Initial residual = 0.0062921137966, Final residual = 0.000302760906107, No Iterations 4
time step continuity errors : sum local = 0.0102616577831, global = 2.86655336702e-05, cumulative = -0.0402916515436
ExecutionTime = 1.81 s  ClockTime = 1 s

Time = 31

smoothSolver:  Solving for Ux, Initial residual = 0.00745060813138, Final residual = 0.000601840166158, No Iterations 4
smoothSolver:  Solving for Uy, Initial residual = 0.00487040854133, Final residual = 0.000351588994053, No Iterations 4
smoothSolver:  Solving for Uz, Initial residual = 0.000960880778694, Final residual = 8.20278774723e-05, No Iterations 4
GAMG:  Solving for p, Initial residual = 0.00594089055625, Final residual = 0.000288196947119, No Iterations 5
time step continuity errors : sum local = 0.00950731475175, global = 1.95682359407e-05, cumulative = -0.0402720833076
ExecutionTime = 1.87 s  ClockTime = 1 s

Time = 32

smoothSolver:  Solving for Ux, Initial residual = 0.00837262185263, Final residual = 0.000679104608201, No Iterations 4
smoothSolver:  Solving for Uy, Initial residual = 0.0040529628359, Final residual = 0.000282876134658, No Iterations 4
smoothSolver:  Solving for Uz, Initial residual = 0.000916818912766, Final residual = 7.80521757293e-05, No Iterations 4
GAMG:  Solving for p, Initial residual = 0.00535109743124, Final residual = 0.000220839722267, No Iterations 6
time step continuity errors : sum local = 0.00712243985727, global = 2.77739004222e-05, cumulative = -0.0402443094072
ExecutionTime = 1.91 s  ClockTime = 1 s

Time = 33

smoothSolver:  Solving for Ux, Initial residual = 0.00957934675685, Final residual = 0.000779688366748, No Iterations 4
smoothSolver:  Solving for Uy, Initial residual = 0.00405116596935, Final residual = 0.000295427485528, No Iterations 4
smoothSolver:  Solving for Uz, Initial residual = 0.000912423932945, Final residual = 7.81685728471e-05, No Iterations 4
GAMG:  Solving for p, Initial residual = 0.00461462019381, Final residual = 0.000226148255321, No Iterations 5
time step continuity errors : sum local = 0.00717977418313, global = 3.66398638518e-05, cumulative = -0.0402076695434
ExecutionTime = 1.97 s  ClockTime = 2 s

Time = 34

smoothSolver:  Solving for Ux, Initial residual = 0.0111793887557, Final residual = 0.000912479237093, No Iterations 4
smoothSolver:  Solving for Uy, Initial residual = 0.00411655562491, Final residual = 0.000310221631395, No Iterations 4
smoothSolver:  Solving for Uz, Initial residual = 0.000911063775489, Final residual = 7.85301631675e-05, No Iterations 4
GAMG:  Solving for p, Initial residual = 0.00386867781558, Final residual = 0.000116477047331, No Iterations 4
time step continuity errors : sum local = 0.00365070016503, global = 3.07098046099e-05, cumulative = -0.0401769597387
ExecutionTime = 2.03 s  ClockTime = 2 s

Time = 35

smoothSolver:  Solving for Ux, Initial residual = 0.0133666044477, Final residual = 0.00109324142899, No Iterations 4
smoothSolver:  Solving for Uy, Initial residual = 0.0037281613677, Final residual = 0.000281308600172, No Iterations 4
smoothSolver:  Solving for Uz, Initial residual = 0.000895129035699, Final residual = 7.75158723942e-05, No Iterations 4
GAMG:  Solving for p, Initial residual = 0.00332112641445, Final residual = 9.57584672378e-05, No Iterations 5
time step continuity errors : sum local = 0.00296259384303, global = 1.05020921508e-05, cumulative = -0.0401664576466
ExecutionTime = 2.09 s  ClockTime = 2 s

Time = 36

smoothSolver:  Solving for Ux, Initial residual = 0.0162311905999, Final residual = 0.00133305449509, No Iterations 4
smoothSolver:  Solving for Uy, Initial residual = 0.00330836624869, Final residual = 0.000248308698492, No Iterations 4
smoothSolver:  Solving for Uz, Initial residual = 0.000871780904053, Final residual = 7.54279659639e-05, No Iterations 4
GAMG:  Solving for p, Initial residual = 0.00305210645548, Final residual = 0.00014303276558, No Iterations 4
time step continuity errors : sum local = 0.00436301764238, global = 4.75552220708e-06, cumulative = -0.0401617021244
ExecutionTime = 2.15 s  ClockTime = 2 s

Time = 37

smoothSolver:  Solving for Ux, Initial residual = 0.0164024196494, Final residual = 0.00134813105847, No Iterations 4
smoothSolver:  Solving for Uy, Initial residual = 0.00282393300526, Final residual = 0.000207982481107, No Iterations 4
smoothSolver:  Solving for Uz, Initial residual = 0.000843257448667, Final residual = 7.27900504876e-05, No Iterations 4
GAMG:  Solving for p, Initial residual = 0.00294004449719, Final residual = 0.000146467439926, No Iterations 4
time step continuity errors : sum local = 0.00440542932538, global = 2.6303586181e-05, cumulative = -0.0401353985382
ExecutionTime = 2.21 s  ClockTime = 2 s

Time = 38

smoothSolver:  Solving for Ux, Initial residual = 0.0137165099653, Final residual = 0.00112862144158, No Iterations 4
smoothSolver:  Solving for Uy, Initial residual = 0.00241663493207, Final residual = 0.000172413358402, No Iterations 4
smoothSolver:  Solving for Uz, Initial residual = 0.000818602333164, Final residual = 7.057338571e-05, No Iterations 4
GAMG:  Solving for p, Initial residual = 0.00272217617527, Final residual = 0.000121426937043, No Iterations 5
time step continuity errors : sum local = 0.0036109768842, global = 1.59971699273e-05, cumulative = -0.0401194013683
ExecutionTime = 2.26 s  ClockTime = 2 s

Time = 39

smoothSolver:  Solving for Ux, Initial residual = 0.0114428062734, Final residual = 0.000943834352128, No Iterations 4
smoothSolver:  Solving for Uy, Initial residual = 0.00229281506291, Final residual = 0.000163639901896, No Iterations 4
smoothSolver:  Solving for Uz, Initial residual = 0.000802861122001, Final residual = 6.91076099152e-05, No Iterations 4
GAMG:  Solving for p, Initial residual = 0.00242072337614, Final residual = 0.000109963556988, No Iterations 4
time step continuity errors : sum local = 0.00322921162882, global = 1.011064824e-05, cumulative = -0.04010929072
ExecutionTime = 2.32 s  ClockTime = 2 s

Time = 40

smoothSolver:  Solving for Ux, Initial residual = 0.00970716327353, Final residual = 0.000802074194805, No Iterations 4
smoothSolver:  Solving for Uy, Initial residual = 0.00235814425377, Final residual = 0.000175088022611, No Iterations 4
smoothSolver:  Solving for Uz, Initial residual = 0.000797324098717, Final residual = 6.87440986393e-05, No Iterations 4
GAMG:  Solving for p, Initial residual = 0.00210027355251, Final residual = 6.03900269485e-05, No Iterations 5
time step continuity errors : sum local = 0.0017508692806, global = 6.32784735468e-06, cumulative = -0.0401029628727
ExecutionTime = 2.38 s  ClockTime = 2 s

Time = 41

smoothSolver:  Solving for Ux, Initial residual = 0.00836830295554, Final residual = 0.000692095579785, No Iterations 4
smoothSolver:  Solving for Uy, Initial residual = 0.00234731410404, Final residual = 0.000177252665764, No Iterations 4
smoothSolver:  Solving for Uz, Initial residual = 0.000786441979751, Final residual = 6.79377777239e-05, No Iterations 4
GAMG:  Solving for p, Initial residual = 0.00181195415182, Final residual = 4.41776676205e-05, No Iterations 5
time step continuity errors : sum local = 0.00126424822227, global = 3.41428256725e-06, cumulative = -0.0400995485901
ExecutionTime = 2.45 s  ClockTime = 2 s

Time = 42

smoothSolver:  Solving for Ux, Initial residual = 0.00734206766754, Final residual = 0.000606786457796, No Iterations 4
smoothSolver:  Solving for Uy, Initial residual = 0.00224439655985, Final residual = 0.000170002602718, No Iterations 4
smoothSolver:  Solving for Uz, Initial residual = 0.000769492769211, Final residual = 6.66323820131e-05, No Iterations 4
GAMG:  Solving for p, Initial residual = 0.00161603176679, Final residual = 5.21325763729e-05, No Iterations 5
time step continuity errors : sum local = 0.00147368407516, global = 5.66773963641e-06, cumulative = -0.0400938808505
ExecutionTime = 2.5 s  ClockTime = 2 s

Time = 43

smoothSolver:  Solving for Ux, Initial residual = 0.00657058027411, Final residual = 0.00053984057954, No Iterations 4
smoothSolver:  Solving for Uy, Initial residual = 0.00205939272593, Final residual = 0.000154303902898, No Iterations 4
smoothSolver:  Solving for Uz, Initial residual = 0.000750480645952, Final residual = 6.52827911867e-05, No Iterations 4
GAMG:  Solving for p, Initial residual = 0.00152981541013, Final residual = 7.221059711e-05, No Iterations 4
time step continuity errors : sum local = 0.00201968717684, global = 9.45807813789e-06, cumulative = -0.0400844227723
ExecutionTime = 2.55 s  ClockTime = 2 s

Time = 44

smoothSolver:  Solving for Ux, Initial residual = 0.00584882288966, Final residual = 0.000485108679751, No Iterations 4
smoothSolver:  Solving for Uy, Initial residual = 0.00184247092881, Final residual = 0.000137378906771, No Iterations 4
smoothSolver:  Solving for Uz, Initial residual = 0.000734006954944, Final residual = 6.37004027922e-05, No Iterations 4
GAMG:  Solving for p, Initial residual = 0.00144588449001, Final residual = 5.94847066366e-05, No Iterations 5
time step continuity errors : sum local = 0.00164724850464, global = 1.19469940869e-05, cumulative = -0.0400724757783
ExecutionTime = 2.61 s  ClockTime = 2 s

Time = 45

smoothSolver:  Solving for Ux, Initial residual = 0.00531594705949, Final residual = 0.000439983940501, No Iterations 4
smoothSolver:  Solving for Uy, Initial residual = 0.00168070647627, Final residual = 0.000124323741585, No Iterations 4
smoothSolver:  Solving for Uz, Initial residual = 0.000718279915683, Final residual = 6.21806656782e-05, No Iterations 4
GAMG:  Solving for p, Initial residual = 0.00132813878752, Final residual = 4.99130723648e-05, No Iterations 5
time step continuity errors : sum local = 0.00136794563204, global = 7.39289094537e-06, cumulative = -0.0400650828873
ExecutionTime = 2.67 s  ClockTime = 2 s

Time = 46

smoothSolver:  Solving for Ux, Initial residual = 0.00484795879658, Final residual = 0.00040246136514, No Iterations 4
smoothSolver:  Solving for Uy, Initial residual = 0.00161460069971, Final residual = 0.000120614927638, No Iterations 4
smoothSolver:  Solving for Uz, Initial residual = 0.000708585368508, Final residual = 6.12342690122e-05, No Iterations 4
GAMG:  Solving for p, Initial residual = 0.00119104446386, Final residual = 2.75093817607e-05, No Iterations 5
time step continuity errors : sum local = 0.000745709612363, global = 8.46126138834e-07, cumulative = -0.0400642367612
ExecutionTime = 2.73 s  ClockTime = 2 s

Time = 47

smoothSolver:  Solving for Ux, Initial residual = 0.00446192326187, Final residual = 0.000370462523965, No Iterations 4
smoothSolver:  Solving for Uy, Initial residual = 0.00158503234203, Final residual = 0.000119937319744, No Iterations 4
smoothSolver:  Solving for Uz, Initial residual = 0.000699446390403, Final residual = 6.04758862827e-05, No Iterations 4
GAMG:  Solving for p, Initial residual = 0.00105452733164, Final residual = 2.53877049519e-05, No Iterations 5
time step continuity errors : sum local = 0.000680372220403, global = 1.85693379214e-06, cumulative = -0.0400623798274
ExecutionTime = 2.78 s  ClockTime = 2 s

Time = 48

smoothSolver:  Solving for Ux, Initial residual = 0.0041372307151, Final residual = 0.000343337083128, No Iterations 4
smoothSolver:  Solving for Uy, Initial residual = 0.00154461039637, Final residual = 0.000117867429781, No Iterations 4
smoothSolver:  Solving for Uz, Initial residual = 0.000689160957698, Final residual = 5.96019167617e-05, No Iterations 4
GAMG:  Solving for p, Initial residual = 0.000933510780205, Final residual = 3.19486477563e-05, No Iterations 5
time step continuity errors : sum local = 0.000847885343016, global = 4.01133100412e-06, cumulative = -0.0400583684964
ExecutionTime = 2.85 s  ClockTime = 2 s

Time = 49

smoothSolver:  Solving for Ux, Initial residual = 0.00386887113172, Final residual = 0.000319705200317, No Iterations 4
smoothSolver:  Solving for Uy, Initial residual = 0.00147399902391, Final residual = 0.000112520872037, No Iterations 4
smoothSolver:  Solving for Uz, Initial residual = 0.000677703500211, Final residual = 5.87049814048e-05, No Iterations 4
GAMG:  Solving for p, Initial residual = 0.000862583599604, Final residual = 2.36058158961e-05, No Iterations 5
time step continuity errors : sum local = 0.000620904829146, global = 1.21763204853e-06, cumulative = -0.0400571508643
ExecutionTime = 2.91 s  ClockTime = 2 s

Time = 50

smoothSolver:  Solving for Ux, Initial residual = 0.00364615785464, Final residual = 0.000299299736989, No Iterations 4
smoothSolver:  Solving for Uy, Initial residual = 0.00140739750942, Final residual = 0.000106962183949, No Iterations 4
smoothSolver:  Solving for Uz, Initial residual = 0.000665619853773, Final residual = 5.79294106909e-05, No Iterations 4
GAMG:  Solving for p, Initial residual = 0.000825921667832, Final residual = 2.49410849438e-05, No Iterations 5
time step continuity errors : sum local = 0.000650057866583, global = 2.03351088714e-06, cumulative = -0.0400551173534
ExecutionTime = 2.97 s  ClockTime = 3 s

Time = 51

smoothSolver:  Solving for Ux, Initial residual = 0.00342139060951, Final residual = 0.000282445341189, No Iterations 4
smoothSolver:  Solving for Uy, Initial residual = 0.00135442587822, Final residual = 0.000103176725592, No Iterations 4
smoothSolver:  Solving for Uz, Initial residual = 0.000659609506887, Final residual = 5.72948148074e-05, No Iterations 4
GAMG:  Solving for p, Initial residual = 0.000772866661159, Final residual = 2.41444653359e-05, No Iterations 5
time step continuity errors : sum local = 0.000623893539184, global = 2.12142692672e-06, cumulative = -0.0400529959265
ExecutionTime = 3.02 s  ClockTime = 3 s

Time = 52

smoothSolver:  Solving for Ux, Initial residual = 0.00323532419757, Final residual = 0.000267725722777, No Iterations 4
smoothSolver:  Solving for Uy, Initial residual = 0.00132199536685, Final residual = 0.000101093937961, No Iterations 4
smoothSolver:  Solving for Uz, Initial residual = 0.000655615285751, Final residual = 5.67692650415e-05, No Iterations 4
GAMG:  Solving for p, Initial residual = 0.000710053207283, Final residual = 2.40814913221e-05, No Iterations 5
time step continuity errors : sum local = 0.000616876838108, global = 2.29609218635e-06, cumulative = -0.0400506998343
ExecutionTime = 3.08 s  ClockTime = 3 s

Time = 53

smoothSolver:  Solving for Ux, Initial residual = 0.00306978516581, Final residual = 0.00025424095599, No Iterations 4
smoothSolver:  Solving for Uy, Initial residual = 0.00130179934779, Final residual = 0.000100212226228, No Iterations 4
smoothSolver:  Solving for Uz, Initial residual = 0.000649872005056, Final residual = 5.6166129154e-05, No Iterations 4
GAMG:  Solving for p, Initial residual = 0.00064481262258, Final residual = 2.74302830945e-05, No Iterations 5
time step continuity errors : sum local = 0.000696478064373, global = 2.2295199545e-06, cumulative = -0.0400484703144
ExecutionTime = 3.14 s  ClockTime = 3 s

Time = 54

smoothSolver:  Solving for Ux, Initial residual = 0.00291087837203, Final residual = 0.000241053362471, No Iterations 4
smoothSolver:  Solving for Uy, Initial residual = 0.00127203843083, Final residual = 9.83526102711e-05, No Iterations 4
smoothSolver:  Solving for Uz, Initial residual = 0.000641256131958, Final residual = 5.54200226249e-05, No Iterations 4
GAMG:  Solving for p, Initial residual = 0.000586129230723, Final residual = 2.88341778197e-05, No Iterations 4
time step continuity errors : sum local = 0.000725666229759, global = 1.22296501937e-06, cumulative = -0.0400472473493
ExecutionTime = 3.2 s  ClockTime = 3 s

Time = 55

smoothSolver:  Solving for Ux, Initial residual = 0.00277011260144, Final residual = 0.000227473285414, No Iterations 4
smoothSolver:  Solving for Uy, Initial residual = 0.00123793727969, Final residual = 9.54082180298e-05, No Iterations 4
smoothSolver:  Solving for Uz, Initial residual = 0.000626507109042, Final residual = 5.43349351185e-05, No Iterations 4
GAMG:  Solving for p, Initial residual = 0.00053894963842, Final residual = 1.34387318121e-05, No Iterations 6
time step continuity errors : sum local = 0.000335318107958, global = 5.2697229007e-07, cumulative = -0.0400467203771
ExecutionTime = 3.26 s  ClockTime = 3 s

Time = 56

smoothSolver:  Solving for Ux, Initial residual = 0.00264847519738, Final residual = 0.000216239133589, No Iterations 4
smoothSolver:  Solving for Uy, Initial residual = 0.00118874425917, Final residual = 9.18982075331e-05, No Iterations 4
smoothSolver:  Solving for Uz, Initial residual = 0.000615953980621, Final residual = 5.35240764619e-05, No Iterations 4
GAMG:  Solving for p, Initial residual = 0.000508245779118, Final residual = 1.52486579986e-05, No Iterations 6
time step continuity errors : sum local = 0.000377263127933, global = 1.27434760796e-06, cumulative = -0.0400454460295
ExecutionTime = 3.32 s  ClockTime = 3 s

Time = 57

smoothSolver:  Solving for Ux, Initial residual = 0.00251905933147, Final residual = 0.000206875365571, No Iterations 4
smoothSolver:  Solving for Uy, Initial residual = 0.00115113806765, Final residual = 8.96344124698e-05, No Iterations 4
smoothSolver:  Solving for Uz, Initial residual = 0.000610040782799, Final residual = 5.2818986426e-05, No Iterations 4
GAMG:  Solving for p, Initial residual = 0.000474815613215, Final residual = 1.46920587581e-05, No Iterations 6
time step continuity errors : sum local = 0.000360767711279, global = 1.07205949996e-06, cumulative = -0.04004437397
ExecutionTime = 3.39 s  ClockTime = 3 s

Time = 58

smoothSolver:  Solving for Ux, Initial residual = 0.00244086344066, Final residual = 0.000200351670446, No Iterations 4
smoothSolver:  Solving for Uy, Initial residual = 0.00113190723459, Final residual = 8.85151799958e-05, No Iterations 4
smoothSolver:  Solving for Uz, Initial residual = 0.000610409581006, Final residual = 5.27323152334e-05, No Iterations 4
GAMG:  Solving for p, Initial residual = 0.00044503199494, Final residual = 1.33019359325e-05, No Iterations 6
time step continuity errors : sum local = 0.00032411754483, global = 5.11013391246e-07, cumulative = -0.0400438629566
ExecutionTime = 3.43 s  ClockTime = 3 s

Time = 59

smoothSolver:  Solving for Ux, Initial residual = 0.00235773720089, Final residual = 0.000193768121232, No Iterations 4
smoothSolver:  Solving for Uy, Initial residual = 0.00111333678294, Final residual = 8.71393499265e-05, No Iterations 4
smoothSolver:  Solving for Uz, Initial residual = 0.000608318317267, Final residual = 5.24994791965e-05, No Iterations 4
GAMG:  Solving for p, Initial residual = 0.000418766302351, Final residual = 1.21236031563e-05, No Iterations 6
time step continuity errors : sum local = 0.000293048102494, global = 3.20352414114e-07, cumulative = -0.0400435426041
ExecutionTime = 3.49 s  ClockTime = 3 s

Time = 60

smoothSolver:  Solving for Ux, Initial residual = 0.00228462598934, Final residual = 0.000185408502066, No Iterations 4
smoothSolver:  Solving for Uy, Initial residual = 0.0010894152951, Final residual = 8.48942724079e-05, No Iterations 4
smoothSolver:  Solving for Uz, Initial residual = 0.00059820146631, Final residual = 5.18076666436e-05, No Iterations 4
GAMG:  Solving for p, Initial residual = 0.000389955391221, Final residual = 1.10916200558e-05, No Iterations 6
time step continuity errors : sum local = 0.000266006529588, global = 3.77181708345e-07, cumulative = -0.0400431654224
ExecutionTime = 3.55 s  ClockTime = 3 s

Time = 61

smoothSolver:  Solving for Ux, Initial residual = 0.00221409087053, Final residual = 0.000179149751092, No Iterations 4
smoothSolver:  Solving for Uy, Initial residual = 0.00107117199839, Final residual = 8.39028711384e-05, No Iterations 4
smoothSolver:  Solving for Uz, Initial residual = 0.00059314115536, Final residual = 5.14543521678e-05, No Iterations 4
GAMG:  Solving for p, Initial residual = 0.00035714141401, Final residual = 1.11194672049e-05, No Iterations 6
time step continuity errors : sum local = 0.000264720925943, global = 6.13679740731e-07, cumulative = -0.0400425517427
ExecutionTime = 3.62 s  ClockTime = 3 s

Time = 62

smoothSolver:  Solving for Ux, Initial residual = 0.00213012354524, Final residual = 0.000173703579686, No Iterations 4
smoothSolver:  Solving for Uy, Initial residual = 0.00105239242406, Final residual = 8.31046929386e-05, No Iterations 4
smoothSolver:  Solving for Uz, Initial residual = 0.000591619581097, Final residual = 5.11527866846e-05, No Iterations 4
GAMG:  Solving for p, Initial residual = 0.000329586123034, Final residual = 1.11723153802e-05, No Iterations 6
time step continuity errors : sum local = 0.000264118885712, global = 5.1651395926e-07, cumulative = -0.0400420352287
ExecutionTime = 3.66 s  ClockTime = 3 s

Time = 63

smoothSolver:  Solving for Ux, Initial residual = 0.00206711356904, Final residual = 0.000168427938162, No Iterations 4
smoothSolver:  Solving for Uy, Initial residual = 0.00103048428919, Final residual = 8.15793961826e-05, No Iterations 4
smoothSolver:  Solving for Uz, Initial residual = 0.000587950381629, Final residual = 5.07084725366e-05, No Iterations 4
GAMG:  Solving for p, Initial residual = 0.000315764876944, Final residual = 1.10938625097e-05, No Iterations 6
time step continuity errors : sum local = 0.00026039270837, global = 4.66525147621e-07, cumulative = -0.0400415687036
ExecutionTime = 3.72 s  ClockTime = 3 s

Time = 64

smoothSolver:  Solving for Ux, Initial residual = 0.00200460895317, Final residual = 0.000162136128803, No Iterations 4
smoothSolver:  Solving for Uy, Initial residual = 0.00100284870124, Final residual = 7.9040143424e-05, No Iterations 4
smoothSolver:  Solving for Uz, Initial residual = 0.000578146170414, Final residual = 4.98986824204e-05, No Iterations 4
GAMG:  Solving for p, Initial residual = 0.000305859459066, Final residual = 1.08911310328e-05, No Iterations 6
time step continuity errors : sum local = 0.000253796188403, global = 4.38713444815e-07, cumulative = -0.0400411299901
ExecutionTime = 3.77 s  ClockTime = 3 s

Time = 65

smoothSolver:  Solving for Ux, Initial residual = 0.00193774685451, Final residual = 0.000155207454015, No Iterations 4
smoothSolver:  Solving for Uy, Initial residual = 0.000970895691244, Final residual = 7.63325502834e-05, No Iterations 4
smoothSolver:  Solving for Uz, Initial residual = 0.000563511293367, Final residual = 4.87531156616e-05, No Iterations 4
GAMG:  Solving for p, Initial residual = 0.000290845075155, Final residual = 1.07789465239e-05, No Iterations 6
time step continuity errors : sum local = 0.000249424547212, global = 5.83532731121e-07, cumulative = -0.0400405464574
ExecutionTime = 3.83 s  ClockTime = 3 s

Time = 66

smoothSolver:  Solving for Ux, Initial residual = 0.00184747333472, Final residual = 0.000147884244842, No Iterations 4
smoothSolver:  Solving for Uy, Initial residual = 0.000936977440485, Final residual = 7.39755044497e-05, No Iterations 4
smoothSolver:  Solving for Uz, Initial residual = 0.000546303822739, Final residual = 4.71685174332e-05, No Iterations 4
GAMG:  Solving for p, Initial residual = 0.000267569802181, Final residual = 1.01704370335e-05, No Iterations 6
time step continuity errors : sum local = 0.000233772052196, global = 5.03924302951e-07, cumulative = -0.0400400425331
ExecutionTime = 3.9 s  ClockTime = 3 s

Time = 67

smoothSolver:  Solving for Ux, Initial residual = 0.00181837053675, Final residual = 0.000145528594878, No Iterations 4
smoothSolver:  Solving for Uy, Initial residual = 0.000934774689136, Final residual = 7.40039913324e-05, No Iterations 4
smoothSolver:  Solving for Uz, Initial residual = 0.000549816215363, Final residual = 4.72986776098e-05, No Iterations 4
GAMG:  Solving for p, Initial residual = 0.000249359398088, Final residual = 9.97632835489e-06, No Iterations 6
time step continuity errors : sum local = 0.000227780662097, global = 4.21646970866e-07, cumulative = -0.0400396208861
ExecutionTime = 3.94 s  ClockTime = 3 s

Time = 68

smoothSolver:  Solving for Ux, Initial residual = 0.00179366448461, Final residual = 0.000143314897066, No Iterations 4
smoothSolver:  Solving for Uy, Initial residual = 0.000930180416849, Final residual = 7.35666294671e-05, No Iterations 4
smoothSolver:  Solving for Uz, Initial residual = 0.000552632759577, Final residual = 4.75489429272e-05, No Iterations 4
GAMG:  Solving for p, Initial residual = 0.000240686930078, Final residual = 9.90492167614e-06, No Iterations 6
time step continuity errors : sum local = 0.000224627319479, global = 4.278991849e-07, cumulative = -0.040039192987
ExecutionTime = 4 s  ClockTime = 4 s

Time = 69

smoothSolver:  Solving for Ux, Initial residual = 0.00176663119221, Final residual = 0.000140476797627, No Iterations 4
smoothSolver:  Solving for Uy, Initial residual = 0.000921412018431, Final residual = 7.29175906785e-05, No Iterations 4
smoothSolver:  Solving for Uz, Initial residual = 0.000551671258039, Final residual = 4.75847705966e-05, No Iterations 4
GAMG:  Solving for p, Initial residual = 0.000233296100072, Final residual = 1.05919614484e-05, No Iterations 6
time step continuity errors : sum local = 0.00023862796314, global = 6.32094739136e-07, cumulative = -0.0400385608922
ExecutionTime = 4.06 s  ClockTime = 4 s

Time = 70

smoothSolver:  Solving for Ux, Initial residual = 0.00171538869963, Final residual = 0.000137438571742, No Iterations 4
smoothSolver:  Solving for Uy, Initial residual = 0.00091374672224, Final residual = 7.25828518689e-05, No Iterations 4
smoothSolver:  Solving for Uz, Initial residual = 0.000549803315652, Final residual = 4.73556870379e-05, No Iterations 4
GAMG:  Solving for p, Initial residual = 0.000218545687135, Final residual = 9.57415636143e-06, No Iterations 6
time step continuity errors : sum local = 0.00021434243802, global = 4.75367616844e-07, cumulative = -0.0400380855246
ExecutionTime = 4.12 s  ClockTime = 4 s

Time = 71

smoothSolver:  Solving for Ux, Initial residual = 0.00168407891009, Final residual = 0.000134412949929, No Iterations 4
smoothSolver:  Solving for Uy, Initial residual = 0.000899139902173, Final residual = 7.15616759665e-05, No Iterations 4
smoothSolver:  Solving for Uz, Initial residual = 0.000546096496947, Final residual = 4.69371790827e-05, No Iterations 4
GAMG:  Solving for p, Initial residual = 0.000208180853835, Final residual = 9.72600340338e-06, No Iterations 6
time step continuity errors : sum local = 0.000216358439598, global = 4.68632917252e-07, cumulative = -0.0400376168917
ExecutionTime = 4.17 s  ClockTime = 4 s

Time = 72

smoothSolver:  Solving for Ux, Initial residual = 0.00166083100688, Final residual = 0.000130816725155, No Iterations 4
smoothSolver:  Solving for Uy, Initial residual = 0.000882832081836, Final residual = 7.00477228157e-05, No Iterations 4
smoothSolver:  Solving for Uz, Initial residual = 0.000539365837958, Final residual = 4.64272677796e-05, No Iterations 4
GAMG:  Solving for p, Initial residual = 0.000202433873368, Final residual = 9.83939738392e-06, No Iterations 6
time step continuity errors : sum local = 0.000217501087458, global = 4.98323573125e-07, cumulative = -0.0400371185681
ExecutionTime = 4.23 s  ClockTime = 4 s

Time = 73

smoothSolver:  Solving for Ux, Initial residual = 0.00162533236955, Final residual = 0.000127717398604, No Iterations 4
smoothSolver:  Solving for Uy, Initial residual = 0.000868216903479, Final residual = 6.9167743715e-05, No Iterations 4
smoothSolver:  Solving for Uz, Initial residual = 0.00053355830711, Final residual = 4.59495623064e-05, No Iterations 4
GAMG:  Solving for p, Initial residual = 0.000191782628785, Final residual = 4.54841804855e-06, No Iterations 8
time step continuity errors : sum local = 9.99277856694e-05, global = 2.36422973586e-07, cumulative = -0.0400368821451
ExecutionTime = 4.29 s  ClockTime = 4 s

Time = 74

smoothSolver:  Solving for Ux, Initial residual = 0.0015800337496, Final residual = 0.000125214711017, No Iterations 4
smoothSolver:  Solving for Uy, Initial residual = 0.00085568600652, Final residual = 6.84067323036e-05, No Iterations 4
smoothSolver:  Solving for Uz, Initial residual = 0.00052940908724, Final residual = 4.54564428959e-05, No Iterations 4
GAMG:  Solving for p, Initial residual = 0.000181717954091, Final residual = 7.08343966401e-06, No Iterations 7
time step continuity errors : sum local = 0.000154657248677, global = 3.5653334165e-07, cumulative = -0.0400365256118
ExecutionTime = 4.35 s  ClockTime = 4 s

Time = 75

smoothSolver:  Solving for Ux, Initial residual = 0.00156143705358, Final residual = 0.000122495840782, No Iterations 4
smoothSolver:  Solving for Uy, Initial residual = 0.000841875580889, Final residual = 6.70351270635e-05, No Iterations 4
smoothSolver:  Solving for Uz, Initial residual = 0.000523093574942, Final residual = 4.49402278823e-05, No Iterations 4
GAMG:  Solving for p, Initial residual = 0.000176535184822, Final residual = 5.6090568756e-06, No Iterations 7
time step continuity errors : sum local = 0.000121749678502, global = 2.05246842337e-07, cumulative = -0.040036320365
ExecutionTime = 4.41 s  ClockTime = 4 s

Time = 76

smoothSolver:  Solving for Ux, Initial residual = 0.00152995237765, Final residual = 0.000119931124585, No Iterations 4
smoothSolver:  Solving for Uy, Initial residual = 0.00082489545375, Final residual = 6.6012850623e-05, No Iterations 4
smoothSolver:  Solving for Uz, Initial residual = 0.000516245076956, Final residual = 4.4346820737e-05, No Iterations 4
GAMG:  Solving for p, Initial residual = 0.00017050643686, Final residual = 6.36976265699e-06, No Iterations 6
time step continuity errors : sum local = 0.000137448147925, global = 2.39855642105e-07, cumulative = -0.0400360805093
ExecutionTime = 4.47 s  ClockTime = 4 s

Time = 77

smoothSolver:  Solving for Ux, Initial residual = 0.00149885061857, Final residual = 0.000118503844843, No Iterations 4
smoothSolver:  Solving for Uy, Initial residual = 0.00081664399358, Final residual = 6.54422467547e-05, No Iterations 4
smoothSolver:  Solving for Uz, Initial residual = 0.000513537058863, Final residual = 4.40063906602e-05, No Iterations 4
GAMG:  Solving for p, Initial residual = 0.00016100470753, Final residual = 6.87508811183e-06, No Iterations 7
time step continuity errors : sum local = 0.000147504495114, global = 3.21867258462e-07, cumulative = -0.040035758642
ExecutionTime = 4.53 s  ClockTime = 4 s

Time = 78

smoothSolver:  Solving for Ux, Initial residual = 0.00147307352455, Final residual = 0.000116268380019, No Iterations 4
smoothSolver:  Solving for Uy, Initial residual = 0.000801280917051, Final residual = 6.40822540444e-05, No Iterations 4
smoothSolver:  Solving for Uz, Initial residual = 0.000506917914232, Final residual = 4.3473997746e-05, No Iterations 4
GAMG:  Solving for p, Initial residual = 0.000156254216225, Final residual = 6.38626871993e-06, No Iterations 7
time step continuity errors : sum local = 0.000136240732121, global = 2.79593352545e-07, cumulative = -0.0400354790487
ExecutionTime = 4.59 s  ClockTime = 4 s

Time = 79

smoothSolver:  Solving for Ux, Initial residual = 0.00145710920513, Final residual = 0.000114350524921, No Iterations 4
smoothSolver:  Solving for Uy, Initial residual = 0.000783704912694, Final residual = 6.28725663474e-05, No Iterations 4
smoothSolver:  Solving for Uz, Initial residual = 0.000498891842595, Final residual = 4.27459706088e-05, No Iterations 4
GAMG:  Solving for p, Initial residual = 0.000150110581673, Final residual = 7.16784010178e-06, No Iterations 6
time step continuity errors : sum local = 0.000152049513885, global = 2.49539562425e-07, cumulative = -0.0400352295091
ExecutionTime = 4.65 s  ClockTime = 4 s

Time = 80

smoothSolver:  Solving for Ux, Initial residual = 0.00142442306994, Final residual = 0.00011244670899, No Iterations 4
smoothSolver:  Solving for Uy, Initial residual = 0.000772847366151, Final residual = 6.20811088301e-05, No Iterations 4
smoothSolver:  Solving for Uz, Initial residual = 0.000491582784919, Final residual = 4.20367042829e-05, No Iterations 4
GAMG:  Solving for p, Initial residual = 0.00014385115712, Final residual = 3.67331164703e-06, No Iterations 9
time step continuity errors : sum local = 7.74879160886e-05, global = 1.16043381365e-07, cumulative = -0.0400351134658
ExecutionTime = 4.71 s  ClockTime = 4 s

Time = 81

smoothSolver:  Solving for Ux, Initial residual = 0.00141435983436, Final residual = 0.000110104603292, No Iterations 4
smoothSolver:  Solving for Uy, Initial residual = 0.000750768509492, Final residual = 6.0435667478e-05, No Iterations 4
smoothSolver:  Solving for Uz, Initial residual = 0.000479876930106, Final residual = 4.09909690544e-05, No Iterations 4
GAMG:  Solving for p, Initial residual = 0.000139059285343, Final residual = 5.2798401757e-06, No Iterations 7
time step continuity errors : sum local = 0.0001107557923, global = 1.91398926073e-07, cumulative = -0.0400349220668
ExecutionTime = 4.77 s  ClockTime = 4 s

Time = 82

smoothSolver:  Solving for Ux, Initial residual = 0.00140726204433, Final residual = 0.000108286106239, No Iterations 4
smoothSolver:  Solving for Uy, Initial residual = 0.000732563076033, Final residual = 5.90392658846e-05, No Iterations 4
smoothSolver:  Solving for Uz, Initial residual = 0.000469806876607, Final residual = 4.00391878498e-05, No Iterations 4
GAMG:  Solving for p, Initial residual = 0.000132690028454, Final residual = 3.81187523506e-06, No Iterations 8
time step continuity errors : sum local = 7.95344936354e-05, global = 1.26314254444e-07, cumulative = -0.0400347957526
ExecutionTime = 4.83 s  ClockTime = 4 s

Time = 83

smoothSolver:  Solving for Ux, Initial residual = 0.00138712672409, Final residual = 0.000105678568469, No Iterations 4
smoothSolver:  Solving for Uy, Initial residual = 0.000707685763318, Final residual = 5.71599715587e-05, No Iterations 4
smoothSolver:  Solving for Uz, Initial residual = 0.000455611233884, Final residual = 3.87072902979e-05, No Iterations 4
GAMG:  Solving for p, Initial residual = 0.000127581356991, Final residual = 5.86915462945e-06, No Iterations 7
time step continuity errors : sum local = 0.000121803843337, global = 2.65506136562e-07, cumulative = -0.0400345302464
ExecutionTime = 4.89 s  ClockTime = 4 s

Time = 84

smoothSolver:  Solving for Ux, Initial residual = 0.00140590189823, Final residual = 0.000104356584135, No Iterations 4
smoothSolver:  Solving for Uy, Initial residual = 0.000688958474092, Final residual = 5.57706406076e-05, No Iterations 4
smoothSolver:  Solving for Uz, Initial residual = 0.000446297062539, Final residual = 3.77380935003e-05, No Iterations 4
GAMG:  Solving for p, Initial residual = 0.00012211797532, Final residual = 5.07158535397e-06, No Iterations 6
time step continuity errors : sum local = 0.000104705373255, global = 6.37983004417e-08, cumulative = -0.0400344664481
ExecutionTime = 4.96 s  ClockTime = 4 s

Time = 85

smoothSolver:  Solving for Ux, Initial residual = 0.0014021268748, Final residual = 0.000104567022584, No Iterations 4
smoothSolver:  Solving for Uy, Initial residual = 0.0006932389487, Final residual = 5.64341030115e-05, No Iterations 4
smoothSolver:  Solving for Uz, Initial residual = 0.000453474359266, Final residual = 3.82443485001e-05, No Iterations 4
GAMG:  Solving for p, Initial residual = 0.000118150020255, Final residual = 4.07677031642e-06, No Iterations 8
time step continuity errors : sum local = 8.3720841531e-05, global = 1.22633972774e-07, cumulative = -0.0400343438142
ExecutionTime = 5.02 s  ClockTime = 5 s

Time = 86

smoothSolver:  Solving for Ux, Initial residual = 0.00131403917964, Final residual = 0.000103633442941, No Iterations 4
smoothSolver:  Solving for Uy, Initial residual = 0.000703229031707, Final residual = 5.7538166635e-05, No Iterations 4
smoothSolver:  Solving for Uz, Initial residual = 0.000463189613071, Final residual = 3.90680503794e-05, No Iterations 4
GAMG:  Solving for p, Initial residual = 0.000113867856759, Final residual = 5.01268235265e-06, No Iterations 7
time step continuity errors : sum local = 0.000102403649895, global = 1.28647561869e-07, cumulative = -0.0400342151666
ExecutionTime = 5.06 s  ClockTime = 5 s

Time = 87

smoothSolver:  Solving for Ux, Initial residual = 0.00125655490557, Final residual = 0.000102554888028, No Iterations 4
smoothSolver:  Solving for Uy, Initial residual = 0.000704710188839, Final residual = 5.78191666096e-05, No Iterations 4
smoothSolver:  Solving for Uz, Initial residual = 0.000467697366178, Final residual = 3.94860278926e-05, No Iterations 4
GAMG:  Solving for p, Initial residual = 0.000110337577571, Final residual = 4.621924632e-06, No Iterations 8
time step continuity errors : sum local = 9.39338022739e-05, global = 1.07387130178e-07, cumulative = -0.0400341077795
ExecutionTime = 5.12 s  ClockTime = 5 s

Time = 88

smoothSolver:  Solving for Ux, Initial residual = 0.00122662073661, Final residual = 0.000101791256345, No Iterations 4
smoothSolver:  Solving for Uy, Initial residual = 0.0007020619779, Final residual = 5.7774154099e-05, No Iterations 4
smoothSolver:  Solving for Uz, Initial residual = 0.000469494207724, Final residual = 3.96821152937e-05, No Iterations 4
GAMG:  Solving for p, Initial residual = 0.000107590223999, Final residual = 5.10575168534e-06, No Iterations 7
time step continuity errors : sum local = 0.000103230099904, global = 1.53288196888e-07, cumulative = -0.0400339544913
ExecutionTime = 5.18 s  ClockTime = 5 s

Time = 89

smoothSolver:  Solving for Ux, Initial residual = 0.00120527880649, Final residual = 0.000101154359069, No Iterations 4
smoothSolver:  Solving for Uy, Initial residual = 0.000696112923997, Final residual = 5.74277169604e-05, No Iterations 4
smoothSolver:  Solving for Uz, Initial residual = 0.000468829390394, Final residual = 3.96704470267e-05, No Iterations 4
GAMG:  Solving for p, Initial residual = 0.000102475929871, Final residual = 2.76851224342e-06, No Iterations 8
time step continuity errors : sum local = 5.5694241457e-05, global = 9.34483660678e-08, cumulative = -0.0400338610429
ExecutionTime = 5.24 s  ClockTime = 5 s

Time = 90

smoothSolver:  Solving for Ux, Initial residual = 0.0011950462131, Final residual = 0.000100582568618, No Iterations 4
smoothSolver:  Solving for Uy, Initial residual = 0.000689312929925, Final residual = 5.69294063488e-05, No Iterations 4
smoothSolver:  Solving for Uz, Initial residual = 0.000466477788975, Final residual = 3.95088776591e-05, No Iterations 4
GAMG:  Solving for p, Initial residual = 9.82491459463e-05, Final residual = 2.66991981756e-06, No Iterations 8
time step continuity errors : sum local = 5.34405498984e-05, global = 1.04371295952e-07, cumulative = -0.0400337566716
ExecutionTime = 5.29 s  ClockTime = 5 s

Time = 91

smoothSolver:  Solving for Ux, Initial residual = 0.00118383369337, Final residual = 9.98514623944e-05, No Iterations 4
smoothSolver:  Solving for Uy, Initial residual = 0.000682198074989, Final residual = 5.63995109218e-05, No Iterations 4
smoothSolver:  Solving for Uz, Initial residual = 0.000463344265049, Final residual = 3.92781235679e-05, No Iterations 4
GAMG:  Solving for p, Initial residual = 9.28873548987e-05, Final residual = 3.09601391606e-06, No Iterations 8
time step continuity errors : sum local = 6.16707223681e-05, global = 8.4581723318e-08, cumulative = -0.0400336720899
ExecutionTime = 5.36 s  ClockTime = 5 s

Time = 92

smoothSolver:  Solving for Ux, Initial residual = 0.00117724590463, Final residual = 9.90103187163e-05, No Iterations 4
smoothSolver:  Solving for Uy, Initial residual = 0.000675024322016, Final residual = 5.58695164015e-05, No Iterations 4
smoothSolver:  Solving for Uz, Initial residual = 0.000459794416571, Final residual = 3.90084068064e-05, No Iterations 4
GAMG:  Solving for p, Initial residual = 8.84390295322e-05, Final residual = 2.348535584e-06, No Iterations 9
time step continuity errors : sum local = 4.65630340129e-05, global = 3.93699744208e-08, cumulative = -0.0400336327199
ExecutionTime = 5.41 s  ClockTime = 5 s

Time = 93

smoothSolver:  Solving for Ux, Initial residual = 0.00116518189243, Final residual = 9.8085555316e-05, No Iterations 4
smoothSolver:  Solving for Uy, Initial residual = 0.000667351741052, Final residual = 5.52880825785e-05, No Iterations 4
smoothSolver:  Solving for Uz, Initial residual = 0.000455987079346, Final residual = 3.87128577171e-05, No Iterations 4
GAMG:  Solving for p, Initial residual = 8.63209569952e-05, Final residual = 2.7723026419e-06, No Iterations 8
time step continuity errors : sum local = 5.47086842353e-05, global = 5.17461046866e-08, cumulative = -0.0400335809738
ExecutionTime = 5.47 s  ClockTime = 5 s

Time = 94

smoothSolver:  Solving for Ux, Initial residual = 0.00115267125015, Final residual = 9.70692571122e-05, No Iterations 4
smoothSolver:  Solving for Uy, Initial residual = 0.000659907411611, Final residual = 5.47153453475e-05, No Iterations 4
smoothSolver:  Solving for Uz, Initial residual = 0.000452048511144, Final residual = 3.84024324027e-05, No Iterations 4
GAMG:  Solving for p, Initial residual = 8.44547375305e-05, Final residual = 3.47600294911e-06, No Iterations 8
time step continuity errors : sum local = 6.82818455999e-05, global = 1.00452395667e-07, cumulative = -0.0400334805214
ExecutionTime = 5.52 s  ClockTime = 5 s

Time = 95

smoothSolver:  Solving for Ux, Initial residual = 0.00114129725627, Final residual = 9.60693935364e-05, No Iterations 4
smoothSolver:  Solving for Uy, Initial residual = 0.000653200507731, Final residual = 5.41976614817e-05, No Iterations 4
smoothSolver:  Solving for Uz, Initial residual = 0.000448073706202, Final residual = 3.80834074775e-05, No Iterations 4
GAMG:  Solving for p, Initial residual = 8.30890529507e-05, Final residual = 2.08382928703e-06, No Iterations 9
time step continuity errors : sum local = 4.0750077003e-05, global = 4.28009682247e-08, cumulative = -0.0400334377204
ExecutionTime = 5.59 s  ClockTime = 5 s

Time = 96

smoothSolver:  Solving for Ux, Initial residual = 0.00112866206498, Final residual = 9.50693149254e-05, No Iterations 4
smoothSolver:  Solving for Uy, Initial residual = 0.000645610939768, Final residual = 5.36000529709e-05, No Iterations 4
smoothSolver:  Solving for Uz, Initial residual = 0.000444045944609, Final residual = 3.77572508966e-05, No Iterations 4
GAMG:  Solving for p, Initial residual = 8.19601039947e-05, Final residual = 3.09725549214e-06, No Iterations 8
time step continuity errors : sum local = 6.02929991643e-05, global = 8.75053403633e-08, cumulative = -0.0400333502151
ExecutionTime = 5.63 s  ClockTime = 5 s

Time = 97

smoothSolver:  Solving for Ux, Initial residual = 0.00111711729605, Final residual = 9.40368605154e-05, No Iterations 4
smoothSolver:  Solving for Uy, Initial residual = 0.000638897097366, Final residual = 5.30784155938e-05, No Iterations 4
smoothSolver:  Solving for Uz, Initial residual = 0.000440029230784, Final residual = 3.74296267726e-05, No Iterations 4
GAMG:  Solving for p, Initial residual = 7.88728301236e-05, Final residual = 2.69643848261e-06, No Iterations 9
time step continuity errors : sum local = 5.22618723677e-05, global = 6.71360011214e-08, cumulative = -0.0400332830791
ExecutionTime = 5.71 s  ClockTime = 5 s

Time = 98

smoothSolver:  Solving for Ux, Initial residual = 0.00110229461598, Final residual = 9.2999942746e-05, No Iterations 4
smoothSolver:  Solving for Uy, Initial residual = 0.000631424343292, Final residual = 5.24877556235e-05, No Iterations 4
smoothSolver:  Solving for Uz, Initial residual = 0.000435981072504, Final residual = 3.70984648817e-05, No Iterations 4
GAMG:  Solving for p, Initial residual = 7.72767790304e-05, Final residual = 3.2180823557e-06, No Iterations 7
time step continuity errors : sum local = 6.21015273712e-05, global = 2.23180152803e-07, cumulative = -0.040033059899
ExecutionTime = 5.76 s  ClockTime = 5 s

Time = 99

smoothSolver:  Solving for Ux, Initial residual = 0.00109084417955, Final residual = 9.20192234156e-05, No Iterations 4
smoothSolver:  Solving for Uy, Initial residual = 0.000625227630333, Final residual = 5.20059657837e-05, No Iterations 4
smoothSolver:  Solving for Uz, Initial residual = 0.000431932757408, Final residual = 3.67662533603e-05, No Iterations 4
GAMG:  Solving for p, Initial residual = 7.5890715346e-05, Final residual = 3.07351816189e-06, No Iterations 9
time step continuity errors : sum local = 5.90577171332e-05, global = 6.71827468727e-08, cumulative = -0.0400329927162
ExecutionTime = 5.82 s  ClockTime = 5 s

Time = 100

smoothSolver:  Solving for Ux, Initial residual = 0.00108013690285, Final residual = 9.10226774468e-05, No Iterations 4
smoothSolver:  Solving for Uy, Initial residual = 0.000617366332941, Final residual = 5.13785411913e-05, No Iterations 4
smoothSolver:  Solving for Uz, Initial residual = 0.000427892115942, Final residual = 3.64339657106e-05, No Iterations 4
GAMG:  Solving for p, Initial residual = 7.47052999042e-05, Final residual = 1.75951330725e-06, No Iterations 8
time step continuity errors : sum local = 3.36664052575e-05, global = 2.6368504809e-08, cumulative = -0.0400329663477
ExecutionTime = 5.86 s  ClockTime = 5 s

Time = 101

smoothSolver:  Solving for Ux, Initial residual = 0.00106900335368, Final residual = 9.00394885807e-05, No Iterations 4
smoothSolver:  Solving for Uy, Initial residual = 0.000610638844801, Final residual = 5.08477701569e-05, No Iterations 4
smoothSolver:  Solving for Uz, Initial residual = 0.000423879579073, Final residual = 3.61029346208e-05, No Iterations 4
GAMG:  Solving for p, Initial residual = 7.38433224121e-05, Final residual = 3.67255919621e-06, No Iterations 6
time step continuity errors : sum local = 6.99739068108e-05, global = -2.25036565529e-08, cumulative = -0.0400329888514
ExecutionTime = 5.94 s  ClockTime = 5 s

Time = 102

smoothSolver:  Solving for Ux, Initial residual = 0.00105591713945, Final residual = 8.90407700693e-05, No Iterations 4
smoothSolver:  Solving for Uy, Initial residual = 0.0006042230346, Final residual = 5.03427147089e-05, No Iterations 4
smoothSolver:  Solving for Uz, Initial residual = 0.000419924685166, Final residual = 3.57752936337e-05, No Iterations 4
GAMG:  Solving for p, Initial residual = 7.14834714029e-05, Final residual = 3.24650951866e-06, No Iterations 7
time step continuity errors : sum local = 6.16052983324e-05, global = 1.97422989696e-07, cumulative = -0.0400327914284
ExecutionTime = 6 s  ClockTime = 6 s

Time = 103

smoothSolver:  Solving for Ux, Initial residual = 0.00104615340747, Final residual = 8.81336968513e-05, No Iterations 4
smoothSolver:  Solving for Uy, Initial residual = 0.000597182224374, Final residual = 4.97803831624e-05, No Iterations 4
smoothSolver:  Solving for Uz, Initial residual = 0.000415995731279, Final residual = 3.54483916847e-05, No Iterations 4
GAMG:  Solving for p, Initial residual = 7.02576143628e-05, Final residual = 2.40785672001e-06, No Iterations 8
time step continuity errors : sum local = 4.55074019929e-05, global = 3.71168230561e-08, cumulative = -0.0400327543115
ExecutionTime = 6.05 s  ClockTime = 6 s

Time = 104

smoothSolver:  Solving for Ux, Initial residual = 0.00103537278743, Final residual = 8.71564339192e-05, No Iterations 4
smoothSolver:  Solving for Uy, Initial residual = 0.000590884454643, Final residual = 4.92815471317e-05, No Iterations 4
smoothSolver:  Solving for Uz, Initial residual = 0.000412090254898, Final residual = 3.51226811845e-05, No Iterations 4
GAMG:  Solving for p, Initial residual = 6.93101712861e-05, Final residual = 3.46284791045e-06, No Iterations 7
time step continuity errors : sum local = 6.51838819671e-05, global = -5.96216301845e-08, cumulative = -0.0400328139332
ExecutionTime = 6.11 s  ClockTime = 6 s

Time = 105

smoothSolver:  Solving for Ux, Initial residual = 0.00102568457642, Final residual = 8.63011793569e-05, No Iterations 4
smoothSolver:  Solving for Uy, Initial residual = 0.000584721758434, Final residual = 4.87938995772e-05, No Iterations 4
smoothSolver:  Solving for Uz, Initial residual = 0.000408208506469, Final residual = 3.47986758494e-05, No Iterations 4
GAMG:  Solving for p, Initial residual = 6.90789304544e-05, Final residual = 1.81826141629e-06, No Iterations 9
time step continuity errors : sum local = 3.40902145335e-05, global = 3.16320696119e-08, cumulative = -0.0400327823011
ExecutionTime = 6.17 s  ClockTime = 6 s

Time = 106

smoothSolver:  Solving for Ux, Initial residual = 0.00101340027177, Final residual = 8.53833830104e-05, No Iterations 4
smoothSolver:  Solving for Uy, Initial residual = 0.000577446018146, Final residual = 4.82093153508e-05, No Iterations 4
smoothSolver:  Solving for Uz, Initial residual = 0.000404362344277, Final residual = 3.44782484191e-05, No Iterations 4
GAMG:  Solving for p, Initial residual = 6.71941410645e-05, Final residual = 2.68087953805e-06, No Iterations 9
time step continuity errors : sum local = 5.00673420912e-05, global = 5.94453510693e-08, cumulative = -0.0400327228558
ExecutionTime = 6.23 s  ClockTime = 6 s

Time = 107

smoothSolver:  Solving for Ux, Initial residual = 0.00100346999273, Final residual = 8.45513381289e-05, No Iterations 4
smoothSolver:  Solving for Uy, Initial residual = 0.000570237320359, Final residual = 4.76299879013e-05, No Iterations 4
smoothSolver:  Solving for Uz, Initial residual = 0.000400568215435, Final residual = 3.41614272766e-05, No Iterations 4
GAMG:  Solving for p, Initial residual = 6.53858981273e-05, Final residual = 2.35264002645e-06, No Iterations 8
time step continuity errors : sum local = 4.37700144932e-05, global = 4.00937698806e-08, cumulative = -0.040032682762
ExecutionTime = 6.29 s  ClockTime = 6 s

Time = 108

smoothSolver:  Solving for Ux, Initial residual = 0.00099203732379, Final residual = 8.36715169414e-05, No Iterations 4
smoothSolver:  Solving for Uy, Initial residual = 0.000564224602742, Final residual = 4.71523018384e-05, No Iterations 4
smoothSolver:  Solving for Uz, Initial residual = 0.000396808584385, Final residual = 3.38466525577e-05, No Iterations 4
GAMG:  Solving for p, Initial residual = 6.4743468601e-05, Final residual = 2.35479855662e-06, No Iterations 8
time step continuity errors : sum local = 4.36436856995e-05, global = 3.92122439924e-08, cumulative = -0.0400326435497
ExecutionTime = 6.36 s  ClockTime = 6 s

Time = 109

smoothSolver:  Solving for Ux, Initial residual = 0.000980573638445, Final residual = 8.2876723319e-05, No Iterations 4
smoothSolver:  Solving for Uy, Initial residual = 0.000558116676691, Final residual = 4.66645503338e-05, No Iterations 4
smoothSolver:  Solving for Uz, Initial residual = 0.00039308361193, Final residual = 3.35341418422e-05, No Iterations 4
GAMG:  Solving for p, Initial residual = 6.39573651665e-05, Final residual = 2.29691658523e-06, No Iterations 8
time step continuity errors : sum local = 4.24108754437e-05, global = 4.32967398157e-08, cumulative = -0.040032600253
ExecutionTime = 6.41 s  ClockTime = 6 s

Time = 110

smoothSolver:  Solving for Ux, Initial residual = 0.000972957553404, Final residual = 8.2066732298e-05, No Iterations 4
smoothSolver:  Solving for Uy, Initial residual = 0.000551874843427, Final residual = 4.6163993628e-05, No Iterations 4
smoothSolver:  Solving for Uz, Initial residual = 0.000389393837336, Final residual = 3.32245044555e-05, No Iterations 4
GAMG:  Solving for p, Initial residual = 6.29687696016e-05, Final residual = 1.66095375316e-06, No Iterations 8
time step continuity errors : sum local = 3.05545169636e-05, global = 3.97587774065e-08, cumulative = -0.0400325604942
ExecutionTime = 6.47 s  ClockTime = 6 s

Time = 111

smoothSolver:  Solving for Ux, Initial residual = 0.000964558937341, Final residual = 8.13160964192e-05, No Iterations 4
smoothSolver:  Solving for Uy, Initial residual = 0.000545623037816, Final residual = 4.56616244298e-05, No Iterations 4
smoothSolver:  Solving for Uz, Initial residual = 0.000385735599835, Final residual = 3.29176003331e-05, No Iterations 4
GAMG:  Solving for p, Initial residual = 6.20585257114e-05, Final residual = 1.69057111324e-06, No Iterations 8
time step continuity errors : sum local = 3.09843358476e-05, global = 2.72140051932e-08, cumulative = -0.0400325332802
ExecutionTime = 6.53 s  ClockTime = 6 s

Time = 112

smoothSolver:  Solving for Ux, Initial residual = 0.00095275173522, Final residual = 8.05166073753e-05, No Iterations 4
smoothSolver:  Solving for Uy, Initial residual = 0.000539868746374, Final residual = 4.5200861778e-05, No Iterations 4
smoothSolver:  Solving for Uz, Initial residual = 0.000382125035356, Final residual = 3.26146005815e-05, No Iterations 4
GAMG:  Solving for p, Initial residual = 6.0384480832e-05, Final residual = 2.58842341706e-06, No Iterations 8
time step continuity errors : sum local = 4.72692752332e-05, global = 7.21745573031e-08, cumulative = -0.0400324611057
ExecutionTime = 6.59 s  ClockTime = 6 s

Time = 113

smoothSolver:  Solving for Ux, Initial residual = 0.00094242792705, Final residual = 7.97805012793e-05, No Iterations 4
smoothSolver:  Solving for Uy, Initial residual = 0.000533989911664, Final residual = 4.47289874493e-05, No Iterations 4
smoothSolver:  Solving for Uz, Initial residual = 0.000378561424636, Final residual = 3.23151554763e-05, No Iterations 4
GAMG:  Solving for p, Initial residual = 5.90260676668e-05, Final residual = 1.9736891078e-06, No Iterations 9
time step continuity errors : sum local = 3.59167722149e-05, global = 3.0671314738e-08, cumulative = -0.0400324304343
ExecutionTime = 6.65 s  ClockTime = 6 s

Time = 114

smoothSolver:  Solving for Ux, Initial residual = 0.000937617042308, Final residual = 7.90644118029e-05, No Iterations 4
smoothSolver:  Solving for Uy, Initial residual = 0.000527506295637, Final residual = 4.42056097467e-05, No Iterations 4
smoothSolver:  Solving for Uz, Initial residual = 0.000375021554591, Final residual = 3.20171781693e-05, No Iterations 4
GAMG:  Solving for p, Initial residual = 5.88312011796e-05, Final residual = 2.24809786447e-06, No Iterations 8
time step continuity errors : sum local = 4.07652663673e-05, global = 4.34036799603e-08, cumulative = -0.0400323870307
ExecutionTime = 6.71 s  ClockTime = 6 s

Time = 115

smoothSolver:  Solving for Ux, Initial residual = 0.00092870165223, Final residual = 7.83350069644e-05, No Iterations 4
smoothSolver:  Solving for Uy, Initial residual = 0.000521645312777, Final residual = 4.37328169652e-05, No Iterations 4
smoothSolver:  Solving for Uz, Initial residual = 0.000371523447791, Final residual = 3.17228147138e-05, No Iterations 4
GAMG:  Solving for p, Initial residual = 5.82307404773e-05, Final residual = 2.3737965869e-06, No Iterations 8
time step continuity errors : sum local = 4.28945138764e-05, global = 5.02242238608e-08, cumulative = -0.0400323368064
ExecutionTime = 6.77 s  ClockTime = 6 s

Time = 116

smoothSolver:  Solving for Ux, Initial residual = 0.000920791406897, Final residual = 7.76861859656e-05, No Iterations 4
smoothSolver:  Solving for Uy, Initial residual = 0.000515954452649, Final residual = 4.32737713115e-05, No Iterations 4
smoothSolver:  Solving for Uz, Initial residual = 0.00036806458473, Final residual = 3.14315957677e-05, No Iterations 4
GAMG:  Solving for p, Initial residual = 5.74213615578e-05, Final residual = 2.69749272021e-06, No Iterations 8
time step continuity errors : sum local = 4.85760329865e-05, global = 7.29208755695e-08, cumulative = -0.0400322638856
ExecutionTime = 6.84 s  ClockTime = 6 s

Time = 117

smoothSolver:  Solving for Ux, Initial residual = 0.000911968804465, Final residual = 7.70006136295e-05, No Iterations 4
smoothSolver:  Solving for Uy, Initial residual = 0.000510589604948, Final residual = 4.28390385067e-05, No Iterations 4
smoothSolver:  Solving for Uz, Initial residual = 0.000364646254803, Final residual = 3.11434914581e-05, No Iterations 4
GAMG:  Solving for p, Initial residual = 5.66154401916e-05, Final residual = 1.96976994127e-06, No Iterations 9
time step continuity errors : sum local = 3.5351107012e-05, global = 3.78399889854e-08, cumulative = -0.0400322260456
ExecutionTime = 6.92 s  ClockTime = 6 s

Time = 118

smoothSolver:  Solving for Ux, Initial residual = 0.000903125943797, Final residual = 7.63193676824e-05, No Iterations 4
smoothSolver:  Solving for Uy, Initial residual = 0.000504608050564, Final residual = 4.235176813e-05, No Iterations 4
smoothSolver:  Solving for Uz, Initial residual = 0.000361258709298, Final residual = 3.08577616204e-05, No Iterations 4
GAMG:  Solving for p, Initial residual = 5.59016105768e-05, Final residual = 1.63502577282e-06, No Iterations 8
time step continuity errors : sum local = 2.92441632911e-05, global = 2.08775495101e-08, cumulative = -0.040032205168
ExecutionTime = 6.98 s  ClockTime = 7 s

Time = 119

smoothSolver:  Solving for Ux, Initial residual = 0.000896797914105, Final residual = 7.57200940782e-05, No Iterations 4
smoothSolver:  Solving for Uy, Initial residual = 0.000499243631394, Final residual = 4.19142801273e-05, No Iterations 4
smoothSolver:  Solving for Uz, Initial residual = 0.000357909536045, Final residual = 3.05752666762e-05, No Iterations 4
GAMG:  Solving for p, Initial residual = 5.49274267644e-05, Final residual = 1.45665450178e-06, No Iterations 8
time step continuity errors : sum local = 2.59667638881e-05, global = 3.5989135514e-08, cumulative = -0.0400321691789
ExecutionTime = 7.04 s  ClockTime = 7 s

Time = 120

smoothSolver:  Solving for Ux, Initial residual = 0.000886428585757, Final residual = 7.50668989113e-05, No Iterations 4
smoothSolver:  Solving for Uy, Initial residual = 0.000493878863978, Final residual = 4.14764394473e-05, No Iterations 4
smoothSolver:  Solving for Uz, Initial residual = 0.000354599425091, Final residual = 3.02960577814e-05, No Iterations 4
GAMG:  Solving for p, Initial residual = 5.38575192018e-05, Final residual = 2.1317639574e-06, No Iterations 8
time step continuity errors : sum local = 3.7876818341e-05, global = 4.96614059199e-08, cumulative = -0.0400321195175
ExecutionTime = 7.09 s  ClockTime = 7 s

Time = 121

smoothSolver:  Solving for Ux, Initial residual = 0.000878711783082, Final residual = 7.44435024708e-05, No Iterations 4
smoothSolver:  Solving for Uy, Initial residual = 0.000488781006226, Final residual = 4.10616054909e-05, No Iterations 4
smoothSolver:  Solving for Uz, Initial residual = 0.000351337062463, Final residual = 3.00208502714e-05, No Iterations 4
GAMG:  Solving for p, Initial residual = 5.23817736768e-05, Final residual = 1.41889225045e-06, No Iterations 10
time step continuity errors : sum local = 2.51304702069e-05, global = 2.50303622069e-08, cumulative = -0.0400320944871
ExecutionTime = 7.15 s  ClockTime = 7 s

Time = 122

smoothSolver:  Solving for Ux, Initial residual = 0.000873947710133, Final residual = 7.38937983707e-05, No Iterations 4
smoothSolver:  Solving for Uy, Initial residual = 0.000483215632251, Final residual = 4.06070191449e-05, No Iterations 4
smoothSolver:  Solving for Uz, Initial residual = 0.000348099000383, Final residual = 2.97473680787e-05, No Iterations 4
GAMG:  Solving for p, Initial residual = 5.21975886647e-05, Final residual = 1.42627913674e-06, No Iterations 10
time step continuity errors : sum local = 2.51800659439e-05, global = 2.70241656618e-08, cumulative = -0.040032067463
ExecutionTime = 7.21 s  ClockTime = 7 s

Time = 123

[...]
smoothSolver:  Solving for Uz, Initial residual = 1.14470551596e-05, Final residual = 6.17305239631e-06, No Iterations 1
GAMG:  Solving for p, Initial residual = 1.37057207308e-06, Final residual = 6.73668217587e-07, No Iterations 2
time step continuity errors : sum local = 7.93769805378e-06, global = -1.11257847178e-08, cumulative = -0.0400240034404
ExecutionTime = 37.13 s  ClockTime = 37 s

Time = 611

smoothSolver:  Solving for Ux, Initial residual = 0.000106969392425, Final residual = 6.43868822415e-06, No Iterations 4
smoothSolver:  Solving for Uy, Initial residual = 2.13628463277e-05, Final residual = 6.31953517396e-06, No Iterations 2
smoothSolver:  Solving for Uz, Initial residual = 1.13963836876e-05, Final residual = 6.14571839322e-06, No Iterations 1
GAMG:  Solving for p, Initial residual = 1.36366648701e-06, Final residual = 6.70369820533e-07, No Iterations 2
time step continuity errors : sum local = 7.89812639382e-06, global = -1.10346589169e-08, cumulative = -0.040024014475
ExecutionTime = 37.17 s  ClockTime = 37 s

Time = 612

smoothSolver:  Solving for Ux, Initial residual = 0.000107188262277, Final residual = 6.41447470121e-06, No Iterations 4
smoothSolver:  Solving for Uy, Initial residual = 2.12979044957e-05, Final residual = 6.30061389178e-06, No Iterations 2
smoothSolver:  Solving for Uz, Initial residual = 1.1345951092e-05, Final residual = 6.11851198509e-06, No Iterations 1
GAMG:  Solving for p, Initial residual = 1.35666887405e-06, Final residual = 6.67066242088e-07, No Iterations 2
time step continuity errors : sum local = 7.8585038307e-06, global = -1.09465899091e-08, cumulative = -0.0400240254216
ExecutionTime = 37.23 s  ClockTime = 37 s

Time = 613

smoothSolver:  Solving for Ux, Initial residual = 0.00010678077763, Final residual = 6.38821772774e-06, No Iterations 4
smoothSolver:  Solving for Uy, Initial residual = 2.12333019982e-05, Final residual = 6.28179340445e-06, No Iterations 2
smoothSolver:  Solving for Uz, Initial residual = 1.12957541804e-05, Final residual = 6.09143350391e-06, No Iterations 1
GAMG:  Solving for p, Initial residual = 1.34971596171e-06, Final residual = 6.63773894749e-07, No Iterations 2
time step continuity errors : sum local = 7.81902365708e-06, global = -1.08595868174e-08, cumulative = -0.0400240362812
ExecutionTime = 37.29 s  ClockTime = 37 s

Time = 614

smoothSolver:  Solving for Ux, Initial residual = 0.000106316949048, Final residual = 6.36314602432e-06, No Iterations 4
smoothSolver:  Solving for Uy, Initial residual = 2.11690679484e-05, Final residual = 6.26307253795e-06, No Iterations 2
smoothSolver:  Solving for Uz, Initial residual = 1.12457934704e-05, Final residual = 6.06448231337e-06, No Iterations 1
GAMG:  Solving for p, Initial residual = 1.34295231542e-06, Final residual = 6.60504063176e-07, No Iterations 2
time step continuity errors : sum local = 7.77981858246e-06, global = -1.07734339878e-08, cumulative = -0.0400240470547
ExecutionTime = 37.35 s  ClockTime = 37 s

Time = 615

smoothSolver:  Solving for Ux, Initial residual = 0.000105337815228, Final residual = 6.34424563235e-06, No Iterations 4
smoothSolver:  Solving for Uy, Initial residual = 2.11051956077e-05, Final residual = 6.24444743516e-06, No Iterations 2
smoothSolver:  Solving for Uz, Initial residual = 1.11960678419e-05, Final residual = 6.03765775082e-06, No Iterations 1
GAMG:  Solving for p, Initial residual = 1.33628824355e-06, Final residual = 6.5724091338e-07, No Iterations 2
time step continuity errors : sum local = 7.74070193663e-06, global = -1.06878539932e-08, cumulative = -0.0400240577425
ExecutionTime = 37.4 s  ClockTime = 37 s

Time = 616

smoothSolver:  Solving for Ux, Initial residual = 0.00010463187718, Final residual = 6.31624393353e-06, No Iterations 4
smoothSolver:  Solving for Uy, Initial residual = 2.104167835e-05, Final residual = 6.22591915272e-06, No Iterations 2
smoothSolver:  Solving for Uz, Initial residual = 1.11465759972e-05, Final residual = 6.01095920135e-06, No Iterations 1
GAMG:  Solving for p, Initial residual = 1.32971633862e-06, Final residual = 6.54004238784e-07, No Iterations 2
time step continuity errors : sum local = 7.70190701886e-06, global = -1.06019820371e-08, cumulative = -0.0400240683445
ExecutionTime = 37.46 s  ClockTime = 37 s

Time = 617

smoothSolver:  Solving for Ux, Initial residual = 0.000104374353908, Final residual = 6.29194471104e-06, No Iterations 4
smoothSolver:  Solving for Uy, Initial residual = 2.0978502587e-05, Final residual = 6.20748311761e-06, No Iterations 2
smoothSolver:  Solving for Uz, Initial residual = 1.109731721e-05, Final residual = 5.98438598025e-06, No Iterations 1
GAMG:  Solving for p, Initial residual = 1.32319094202e-06, Final residual = 6.50800004475e-07, No Iterations 2
time step continuity errors : sum local = 7.66350361684e-06, global = -1.05159191855e-08, cumulative = -0.0400240788604
ExecutionTime = 37.52 s  ClockTime = 37 s

Time = 618

smoothSolver:  Solving for Ux, Initial residual = 0.000105263202896, Final residual = 6.26514535223e-06, No Iterations 4
smoothSolver:  Solving for Uy, Initial residual = 2.09156683483e-05, Final residual = 6.18913967002e-06, No Iterations 2
smoothSolver:  Solving for Uz, Initial residual = 1.1048289862e-05, Final residual = 5.95793740976e-06, No Iterations 1
GAMG:  Solving for p, Initial residual = 1.31668215159e-06, Final residual = 6.47628339509e-07, No Iterations 2
time step continuity errors : sum local = 7.62549330912e-06, global = -1.04305179076e-08, cumulative = -0.0400240892909
ExecutionTime = 37.58 s  ClockTime = 37 s

Time = 619

smoothSolver:  Solving for Ux, Initial residual = 0.000104464288208, Final residual = 6.23785977157e-06, No Iterations 4
smoothSolver:  Solving for Uy, Initial residual = 2.08531640499e-05, Final residual = 6.17088500496e-06, No Iterations 2
smoothSolver:  Solving for Uz, Initial residual = 1.09994927165e-05, Final residual = 5.93161281616e-06, No Iterations 1
GAMG:  Solving for p, Initial residual = 1.31019250059e-06, Final residual = 6.44485730064e-07, No Iterations 2
time step continuity errors : sum local = 7.58783455587e-06, global = -1.03460709888e-08, cumulative = -0.040024099637
ExecutionTime = 37.64 s  ClockTime = 37 s

Time = 620

smoothSolver:  Solving for Ux, Initial residual = 0.000103986808988, Final residual = 6.21499735178e-06, No Iterations 4
smoothSolver:  Solving for Uy, Initial residual = 2.07909866222e-05, Final residual = 6.15272107394e-06, No Iterations 2
smoothSolver:  Solving for Uz, Initial residual = 1.09509243382e-05, Final residual = 5.90541145377e-06, No Iterations 1
GAMG:  Solving for p, Initial residual = 1.30372497425e-06, Final residual = 6.4136626895e-07, No Iterations 2
time step continuity errors : sum local = 7.55045752066e-06, global = -1.02625503074e-08, cumulative = -0.0400241098996
ExecutionTime = 37.7 s  ClockTime = 37 s

Time = 621

smoothSolver:  Solving for Ux, Initial residual = 0.000105237167123, Final residual = 6.18479732001e-06, No Iterations 4
smoothSolver:  Solving for Uy, Initial residual = 2.07291352101e-05, Final residual = 6.13464530926e-06, No Iterations 2
smoothSolver:  Solving for Uz, Initial residual = 1.09025834515e-05, Final residual = 5.87933273933e-06, No Iterations 1
GAMG:  Solving for p, Initial residual = 1.29729131581e-06, Final residual = 6.38266440927e-07, No Iterations 2
time step continuity errors : sum local = 7.51332088914e-06, global = -1.01798743529e-08, cumulative = -0.0400241200794
ExecutionTime = 37.76 s  ClockTime = 37 s

Time = 622

smoothSolver:  Solving for Ux, Initial residual = 0.000104743690742, Final residual = 6.15962386584e-06, No Iterations 4
smoothSolver:  Solving for Uy, Initial residual = 2.06676047063e-05, Final residual = 6.11666100327e-06, No Iterations 2
smoothSolver:  Solving for Uz, Initial residual = 1.08544690584e-05, Final residual = 5.85337614212e-06, No Iterations 1
GAMG:  Solving for p, Initial residual = 1.29089197641e-06, Final residual = 6.3518367551e-07, No Iterations 2
time step continuity errors : sum local = 7.47639412178e-06, global = -1.00982634407e-08, cumulative = -0.0400241301777
ExecutionTime = 37.83 s  ClockTime = 37 s

Time = 623

smoothSolver:  Solving for Ux, Initial residual = 0.000104412552819, Final residual = 6.1381219999e-06, No Iterations 4
smoothSolver:  Solving for Uy, Initial residual = 2.06063942158e-05, Final residual = 6.09876417974e-06, No Iterations 2
smoothSolver:  Solving for Uz, Initial residual = 1.08065799826e-05, Final residual = 5.82754099682e-06, No Iterations 1
GAMG:  Solving for p, Initial residual = 1.28452506638e-06, Final residual = 6.32115211408e-07, No Iterations 2
time step continuity errors : sum local = 7.43964468066e-06, global = -1.00177453683e-08, cumulative = -0.0400241401954
ExecutionTime = 37.88 s  ClockTime = 37 s

Time = 624

smoothSolver:  Solving for Ux, Initial residual = 0.000103511226288, Final residual = 6.11977748699e-06, No Iterations 4
smoothSolver:  Solving for Uy, Initial residual = 2.05455017128e-05, Final residual = 6.08095388711e-06, No Iterations 2
smoothSolver:  Solving for Uz, Initial residual = 1.07589150031e-05, Final residual = 5.80182662247e-06, No Iterations 1
GAMG:  Solving for p, Initial residual = 1.27820028671e-06, Final residual = 6.29058796226e-07, No Iterations 2
time step continuity errors : sum local = 7.40304596174e-06, global = -9.93823257163e-09, cumulative = -0.0400241501337
ExecutionTime = 37.94 s  ClockTime = 37 s

Time = 625

smoothSolver:  Solving for Ux, Initial residual = 0.000103424864719, Final residual = 6.0971696877e-06, No Iterations 4
smoothSolver:  Solving for Uy, Initial residual = 2.04849169794e-05, Final residual = 6.06322866351e-06, No Iterations 2
smoothSolver:  Solving for Uz, Initial residual = 1.07114730166e-05, Final residual = 5.77623248892e-06, No Iterations 1
GAMG:  Solving for p, Initial residual = 1.27190423348e-06, Final residual = 6.26013622659e-07, No Iterations 2
time step continuity errors : sum local = 7.3665883583e-06, global = -9.85987343742e-09, cumulative = -0.0400241599935
ExecutionTime = 38 s  ClockTime = 38 s

Time = 626

smoothSolver:  Solving for Ux, Initial residual = 0.000104375509562, Final residual = 6.06632954772e-06, No Iterations 4
smoothSolver:  Solving for Uy, Initial residual = 2.042463475e-05, Final residual = 6.04558870208e-06, No Iterations 2
smoothSolver:  Solving for Uz, Initial residual = 1.06642528616e-05, Final residual = 5.75075797405e-06, No Iterations 1
GAMG:  Solving for p, Initial residual = 1.2656372998e-06, Final residual = 6.22979483203e-07, No Iterations 2
time step continuity errors : sum local = 7.3302694727e-06, global = -9.78254150721e-09, cumulative = -0.0400241697761
ExecutionTime = 38.06 s  ClockTime = 38 s

Time = 627

smoothSolver:  Solving for Ux, Initial residual = 0.000103477123609, Final residual = 6.03646367353e-06, No Iterations 4
smoothSolver:  Solving for Uy, Initial residual = 2.03646479421e-05, Final residual = 6.02803019941e-06, No Iterations 2
smoothSolver:  Solving for Uz, Initial residual = 1.06172534961e-05, Final residual = 5.72540241268e-06, No Iterations 1
GAMG:  Solving for p, Initial residual = 1.2593993194e-06, Final residual = 6.19957039203e-07, No Iterations 2
time step continuity errors : sum local = 7.29409667043e-06, global = -9.7062520794e-09, cumulative = -0.0400241794823
ExecutionTime = 38.12 s  ClockTime = 38 s

Time = 628

smoothSolver:  Solving for Ux, Initial residual = 0.000101976694463, Final residual = 6.02707396443e-06, No Iterations 4
smoothSolver:  Solving for Uy, Initial residual = 2.03049560319e-05, Final residual = 6.01055454894e-06, No Iterations 2
smoothSolver:  Solving for Uz, Initial residual = 1.05704738496e-05, Final residual = 5.70016526303e-06, No Iterations 1
GAMG:  Solving for p, Initial residual = 1.25318921636e-06, Final residual = 6.16946086235e-07, No Iterations 2
time step continuity errors : sum local = 7.25806781459e-06, global = -9.63045730349e-09, cumulative = -0.0400241891128
ExecutionTime = 38.17 s  ClockTime = 38 s

Time = 629

smoothSolver:  Solving for Ux, Initial residual = 0.000102030906955, Final residual = 5.99546343298e-06, No Iterations 4
smoothSolver:  Solving for Uy, Initial residual = 2.02455564542e-05, Final residual = 5.99315931795e-06, No Iterations 2
smoothSolver:  Solving for Uz, Initial residual = 1.05239126894e-05, Final residual = 5.67504605584e-06, No Iterations 1
GAMG:  Solving for p, Initial residual = 1.24700769401e-06, Final residual = 6.13947804542e-07, No Iterations 2
time step continuity errors : sum local = 7.22219660587e-06, global = -9.55529888221e-09, cumulative = -0.0400241986681
ExecutionTime = 38.22 s  ClockTime = 38 s

Time = 630

smoothSolver:  Solving for Ux, Initial residual = 0.000100546748884, Final residual = 5.96149631027e-06, No Iterations 4
smoothSolver:  Solving for Uy, Initial residual = 2.01864404158e-05, Final residual = 5.97584271284e-06, No Iterations 2
smoothSolver:  Solving for Uz, Initial residual = 1.04775691857e-05, Final residual = 5.65004407263e-06, No Iterations 1
GAMG:  Solving for p, Initial residual = 1.24085658767e-06, Final residual = 6.1096288714e-07, No Iterations 2
time step continuity errors : sum local = 7.18649100039e-06, global = -9.48057064192e-09, cumulative = -0.0400242081487
ExecutionTime = 38.28 s  ClockTime = 38 s

Time = 631

smoothSolver:  Solving for Ux, Initial residual = 0.000100736275753, Final residual = 5.94085164778e-06, No Iterations 4
smoothSolver:  Solving for Uy, Initial residual = 2.0127607711e-05, Final residual = 5.95860484305e-06, No Iterations 2
smoothSolver:  Solving for Uz, Initial residual = 1.0431442335e-05, Final residual = 5.62515860742e-06, No Iterations 1
GAMG:  Solving for p, Initial residual = 1.2347203029e-06, Final residual = 6.07992797257e-07, No Iterations 2
time step continuity errors : sum local = 7.15096828397e-06, global = -9.40587462064e-09, cumulative = -0.0400242175545
ExecutionTime = 38.34 s  ClockTime = 38 s

Time = 632

smoothSolver:  Solving for Ux, Initial residual = 0.000102256701476, Final residual = 5.92856273191e-06, No Iterations 4
smoothSolver:  Solving for Uy, Initial residual = 2.00690733811e-05, Final residual = 5.94144536803e-06, No Iterations 2
smoothSolver:  Solving for Uz, Initial residual = 1.03855304591e-05, Final residual = 5.60038830094e-06, No Iterations 1
GAMG:  Solving for p, Initial residual = 1.22845106458e-06, Final residual = 6.05044637078e-07, No Iterations 2
time step continuity errors : sum local = 7.11571158492e-06, global = -9.32918306013e-09, cumulative = -0.0400242268837
ExecutionTime = 38.4 s  ClockTime = 38 s

Time = 633

smoothSolver:  Solving for Ux, Initial residual = 0.000101532460152, Final residual = 5.91115104427e-06, No Iterations 4
smoothSolver:  Solving for Uy, Initial residual = 2.00107789888e-05, Final residual = 5.92436212236e-06, No Iterations 2
smoothSolver:  Solving for Uz, Initial residual = 1.03398311476e-05, Final residual = 5.57573363661e-06, No Iterations 1
GAMG:  Solving for p, Initial residual = 1.22221003844e-06, Final residual = 6.02111810072e-07, No Iterations 2
time step continuity errors : sum local = 7.08064369579e-06, global = -9.25144237049e-09, cumulative = -0.0400242361352
ExecutionTime = 38.45 s  ClockTime = 38 s

Time = 634

smoothSolver:  Solving for Ux, Initial residual = 0.000100893876744, Final residual = 5.88560921337e-06, No Iterations 4
smoothSolver:  Solving for Uy, Initial residual = 1.99527644607e-05, Final residual = 5.90735437387e-06, No Iterations 2
smoothSolver:  Solving for Uz, Initial residual = 1.02943452934e-05, Final residual = 5.55119381938e-06, No Iterations 1
GAMG:  Solving for p, Initial residual = 1.21607388198e-06, Final residual = 5.99196812049e-07, No Iterations 2
time step continuity errors : sum local = 7.04579343617e-06, global = -9.17365467725e-09, cumulative = -0.0400242453088
ExecutionTime = 38.51 s  ClockTime = 38 s

Time = 635

smoothSolver:  Solving for Ux, Initial residual = 0.00010025285853, Final residual = 5.85968307916e-06, No Iterations 4
smoothSolver:  Solving for Uy, Initial residual = 1.98950319815e-05, Final residual = 5.89042279191e-06, No Iterations 2
smoothSolver:  Solving for Uz, Initial residual = 1.02490631873e-05, Final residual = 5.5267660999e-06, No Iterations 1
GAMG:  Solving for p, Initial residual = 1.21018954114e-06, Final residual = 5.96278025383e-07, No Iterations 2
time step continuity errors : sum local = 7.01090677776e-06, global = -9.09342343597e-09, cumulative = -0.0400242544022
ExecutionTime = 38.57 s  ClockTime = 38 s

Time = 636

smoothSolver:  Solving for Ux, Initial residual = 0.000101330502805, Final residual = 5.83178256573e-06, No Iterations 4
smoothSolver:  Solving for Uy, Initial residual = 1.98375704672e-05, Final residual = 5.87356407864e-06, No Iterations 2
smoothSolver:  Solving for Uz, Initial residual = 1.02039924237e-05, Final residual = 5.50245181467e-06, No Iterations 1
GAMG:  Solving for p, Initial residual = 1.20457686245e-06, Final residual = 5.93376531359e-07, No Iterations 2
time step continuity errors : sum local = 6.97623133645e-06, global = -9.00872942057e-09, cumulative = -0.040024263411
ExecutionTime = 38.63 s  ClockTime = 38 s

Time = 637

smoothSolver:  Solving for Ux, Initial residual = 0.000100661204358, Final residual = 5.80437507945e-06, No Iterations 4
smoothSolver:  Solving for Uy, Initial residual = 1.97803722268e-05, Final residual = 5.85677923982e-06, No Iterations 2
smoothSolver:  Solving for Uz, Initial residual = 1.0159134838e-05, Final residual = 5.4782512804e-06, No Iterations 1
GAMG:  Solving for p, Initial residual = 1.19906476839e-06, Final residual = 5.90515718819e-07, No Iterations 2
time step continuity errors : sum local = 6.94204208181e-06, global = -8.92360848139e-09, cumulative = -0.0400242723346
ExecutionTime = 38.7 s  ClockTime = 38 s

Time = 638

smoothSolver:  Solving for Ux, Initial residual = 0.000100280539366, Final residual = 5.78771277969e-06, No Iterations 4
smoothSolver:  Solving for Uy, Initial residual = 1.97234533955e-05, Final residual = 5.84006908887e-06, No Iterations 2
smoothSolver:  Solving for Uz, Initial residual = 1.01144870694e-05, Final residual = 5.45416363136e-06, No Iterations 1
GAMG:  Solving for p, Initial residual = 1.19355196247e-06, Final residual = 5.87724139483e-07, No Iterations 2
time step continuity errors : sum local = 6.90867465138e-06, global = -8.84311942344e-09, cumulative = -0.0400242811777
ExecutionTime = 38.76 s  ClockTime = 38 s

Time = 639

smoothSolver:  Solving for Ux, Initial residual = 0.00010018651984, Final residual = 5.76018251344e-06, No Iterations 4
smoothSolver:  Solving for Uy, Initial residual = 1.96668047358e-05, Final residual = 5.82343287423e-06, No Iterations 2
smoothSolver:  Solving for Uz, Initial residual = 1.00700477048e-05, Final residual = 5.43018825906e-06, No Iterations 1
GAMG:  Solving for p, Initial residual = 1.18804575447e-06, Final residual = 5.84951668131e-07, No Iterations 2
time step continuity errors : sum local = 6.87553939872e-06, global = -8.7694327305e-09, cumulative = -0.0400242899471
ExecutionTime = 38.82 s  ClockTime = 38 s

Time = 640

smoothSolver:  Solving for Ux, Initial residual = 9.91508771392e-05, Final residual = 5.739679041e-06, No Iterations 4
smoothSolver:  Solving for Uy, Initial residual = 1.96104021348e-05, Final residual = 5.80687138724e-06, No Iterations 2
smoothSolver:  Solving for Uz, Initial residual = 1.00258156028e-05, Final residual = 5.40632454749e-06, No Iterations 1
GAMG:  Solving for p, Initial residual = 1.18252544446e-06, Final residual = 5.82178765744e-07, No Iterations 2
time step continuity errors : sum local = 6.84240663824e-06, global = -8.70165353373e-09, cumulative = -0.0400242986488
ExecutionTime = 38.86 s  ClockTime = 38 s


SIMPLE solution converged in 640 iterations

    writing object shearStress
End

Finalising parallel run
