/*---------------------------------------------------------------------------*\
  =========                 |
  \\      /  F ield         | OpenFOAM: The Open Source CFD Toolbox
   \\    /   O peration     | Website:  https://openfoam.org
    \\  /    A nd           | Version:  9
     \\/     M anipulation  |
\*---------------------------------------------------------------------------*/
Build  : 9-b456138dc4bc
Exec   : simpleFoam -parallel
Date   : Apr 09 2022
Time   : 06:52:33
Host   : "KORIN-LAB"
PID    : 4676
I/O    : uncollated
Case   : /home/colin/OpenFOAM/colin-9/run/wsl/wedge_needle/25_temp/tapered_true_layer
nProcs : 6
Slaves : 
5
(
"KORIN-LAB.4677"
"KORIN-LAB.4678"
"KORIN-LAB.4679"
"KORIN-LAB.4680"
"KORIN-LAB.4681"
)

Pstream initialised with:
    floatTransfer      : 0
    nProcsSimpleSum    : 0
    commsType          : nonBlocking
    polling iterations : 0
sigFpe : Enabling floating point exception trapping (FOAM_SIGFPE).
fileModificationChecking : Monitoring run-time modified files using timeStampMaster (fileModificationSkew 10)
allowSystemOperations : Allowing user-supplied system call operations

// * * * * * * * * * * * * * * * * * * * * * * * * * * * * * * * * * * * * * //
Create time

Create mesh for time = 0


SIMPLE: Convergence criteria found
        p: tolerance 0.001
        U: tolerance 0.0001
        "(k|epsilon|omega|f|v2)": tolerance 0.0001

Reading field p

Reading field U

Reading/calculating face flux field phi

Selecting incompressible transport model powerLaw
Selecting turbulence model type laminar
Selecting laminar stress model Stokes
No MRF models present

No fvModels present
No fvConstraints present

Starting time loop

wallShearStress wallShearStress:
    processing all wall patches

Time = 1

smoothSolver:  Solving for Ux, Initial residual = 0.999993114871, Final residual = 0.0919436853756, No Iterations 2
smoothSolver:  Solving for Uy, Initial residual = 1, Final residual = 0.0705822008604, No Iterations 2
smoothSolver:  Solving for Uz, Initial residual = 1, Final residual = 0.0920630302967, No Iterations 2
GAMG:  Solving for p, Initial residual = 0.999999999986, Final residual = 0.0448272277033, No Iterations 28
time step continuity errors : sum local = 0.0146486189039, global = -7.71368774252e-06, cumulative = -7.71368774252e-06
ExecutionTime = 0.18 s  ClockTime = 0 s

Time = 2

smoothSolver:  Solving for Ux, Initial residual = 0.950708332, Final residual = 0.0832618666448, No Iterations 4
smoothSolver:  Solving for Uy, Initial residual = 0.966957494242, Final residual = 0.0863633995989, No Iterations 4
smoothSolver:  Solving for Uz, Initial residual = 0.949835373065, Final residual = 0.0840857754823, No Iterations 4
GAMG:  Solving for p, Initial residual = 0.00656967330732, Final residual = 0.000226453938203, No Iterations 16
time step continuity errors : sum local = 12.9307637759, global = 0.0430238705818, cumulative = 0.043016156894
ExecutionTime = 0.28 s  ClockTime = 0 s

Time = 3

smoothSolver:  Solving for Ux, Initial residual = 0.292910800261, Final residual = 0.0162352990309, No Iterations 4
smoothSolver:  Solving for Uy, Initial residual = 0.595117588368, Final residual = 0.0509531852608, No Iterations 4
smoothSolver:  Solving for Uz, Initial residual = 0.135665498862, Final residual = 0.0119978189761, No Iterations 4
GAMG:  Solving for p, Initial residual = 0.0344644357126, Final residual = 0.00155645195369, No Iterations 17
time step continuity errors : sum local = 27.536946135, global = 0.0312793807397, cumulative = 0.0742955376338
ExecutionTime = 0.37 s  ClockTime = 0 s

Time = 4

smoothSolver:  Solving for Ux, Initial residual = 0.0165072611428, Final residual = 0.000905945747689, No Iterations 4
smoothSolver:  Solving for Uy, Initial residual = 0.18354912571, Final residual = 0.016126369921, No Iterations 4
smoothSolver:  Solving for Uz, Initial residual = 0.0651684298222, Final residual = 0.00562815921373, No Iterations 4
GAMG:  Solving for p, Initial residual = 0.21123007087, Final residual = 0.00755515219191, No Iterations 13
time step continuity errors : sum local = 48.2793188687, global = 0.0536040336691, cumulative = 0.127899571303
ExecutionTime = 0.46 s  ClockTime = 0 s

Time = 5

smoothSolver:  Solving for Ux, Initial residual = 0.0056133459003, Final residual = 0.000345862629876, No Iterations 4
smoothSolver:  Solving for Uy, Initial residual = 0.0702155698127, Final residual = 0.00618799401345, No Iterations 4
smoothSolver:  Solving for Uz, Initial residual = 0.0484415863297, Final residual = 0.00402059079518, No Iterations 4
GAMG:  Solving for p, Initial residual = 0.233761497078, Final residual = 0.00750366630658, No Iterations 10
time step continuity errors : sum local = 37.961683398, global = 0.13316043836, cumulative = 0.261060009663
ExecutionTime = 0.56 s  ClockTime = 0 s

Time = 6

smoothSolver:  Solving for Ux, Initial residual = 0.00267092984456, Final residual = 0.000262661942814, No Iterations 3
smoothSolver:  Solving for Uy, Initial residual = 0.0540161350533, Final residual = 0.00438244641969, No Iterations 4
smoothSolver:  Solving for Uz, Initial residual = 0.0734417866769, Final residual = 0.00610930090642, No Iterations 4
GAMG:  Solving for p, Initial residual = 0.110627287369, Final residual = 0.00384610086622, No Iterations 12
time step continuity errors : sum local = 20.590861168, global = -0.104547060387, cumulative = 0.156512949276
ExecutionTime = 0.65 s  ClockTime = 0 s

Time = 7

smoothSolver:  Solving for Ux, Initial residual = 0.00174045455559, Final residual = 0.000132994848099, No Iterations 3
smoothSolver:  Solving for Uy, Initial residual = 0.169342701595, Final residual = 0.0148290860574, No Iterations 4
smoothSolver:  Solving for Uz, Initial residual = 0.220499744555, Final residual = 0.0191545716936, No Iterations 4
GAMG:  Solving for p, Initial residual = 0.124229790296, Final residual = 0.00483081326799, No Iterations 13
time step continuity errors : sum local = 17.5032055601, global = -0.0319272485198, cumulative = 0.124585700756
ExecutionTime = 0.75 s  ClockTime = 0 s

Time = 8

smoothSolver:  Solving for Ux, Initial residual = 0.00128658522786, Final residual = 9.48145020083e-05, No Iterations 3
smoothSolver:  Solving for Uy, Initial residual = 0.2123692234, Final residual = 0.018864719825, No Iterations 4
smoothSolver:  Solving for Uz, Initial residual = 0.180537746283, Final residual = 0.0158777703838, No Iterations 4
GAMG:  Solving for p, Initial residual = 0.242117493174, Final residual = 0.00851150335917, No Iterations 11
time step continuity errors : sum local = 15.4665214147, global = -0.0172210556119, cumulative = 0.107364645144
ExecutionTime = 0.84 s  ClockTime = 0 s

Time = 9

smoothSolver:  Solving for Ux, Initial residual = 0.00106943122962, Final residual = 8.52948459018e-05, No Iterations 3
smoothSolver:  Solving for Uy, Initial residual = 0.0756355691226, Final residual = 0.00673934979521, No Iterations 4
smoothSolver:  Solving for Uz, Initial residual = 0.121185593797, Final residual = 0.0106732098863, No Iterations 4
GAMG:  Solving for p, Initial residual = 0.269472096865, Final residual = 0.00985666767964, No Iterations 12
time step continuity errors : sum local = 13.8062297399, global = -0.00470404371729, cumulative = 0.102660601427
ExecutionTime = 0.93 s  ClockTime = 1 s

Time = 10

smoothSolver:  Solving for Ux, Initial residual = 0.000868144922753, Final residual = 7.63640418573e-05, No Iterations 3
smoothSolver:  Solving for Uy, Initial residual = 0.052908557515, Final residual = 0.00463429682698, No Iterations 4
smoothSolver:  Solving for Uz, Initial residual = 0.142897096941, Final residual = 0.0124582651947, No Iterations 4
GAMG:  Solving for p, Initial residual = 0.218397544674, Final residual = 0.0104437635526, No Iterations 11
time step continuity errors : sum local = 13.2580208165, global = 0.0265543626183, cumulative = 0.129214964045
ExecutionTime = 1.02 s  ClockTime = 1 s

Time = 11

smoothSolver:  Solving for Ux, Initial residual = 0.000729826476702, Final residual = 7.02257326101e-05, No Iterations 3
smoothSolver:  Solving for Uy, Initial residual = 0.0680014010302, Final residual = 0.00575468187213, No Iterations 4
smoothSolver:  Solving for Uz, Initial residual = 0.0889987933708, Final residual = 0.00754742152984, No Iterations 4
GAMG:  Solving for p, Initial residual = 0.202870103877, Final residual = 0.00749578238546, No Iterations 9
time step continuity errors : sum local = 7.50696474373, global = 0.0353424713466, cumulative = 0.164557435392
ExecutionTime = 1.11 s  ClockTime = 1 s

Time = 12

smoothSolver:  Solving for Ux, Initial residual = 0.000633208601169, Final residual = 3.27999668362e-05, No Iterations 4
smoothSolver:  Solving for Uy, Initial residual = 0.203390555938, Final residual = 0.0175868847529, No Iterations 4
smoothSolver:  Solving for Uz, Initial residual = 0.0487343671684, Final residual = 0.00420198386758, No Iterations 4
GAMG:  Solving for p, Initial residual = 0.217826301681, Final residual = 0.00919524546019, No Iterations 9
time step continuity errors : sum local = 6.57329416229, global = 0.0069929684281, cumulative = 0.17155040382
ExecutionTime = 1.21 s  ClockTime = 1 s

Time = 13

smoothSolver:  Solving for Ux, Initial residual = 0.000603891244702, Final residual = 3.33197489521e-05, No Iterations 4
smoothSolver:  Solving for Uy, Initial residual = 0.164011376702, Final residual = 0.0145471478713, No Iterations 4
smoothSolver:  Solving for Uz, Initial residual = 0.0408880580385, Final residual = 0.00361391134385, No Iterations 4
GAMG:  Solving for p, Initial residual = 0.236494204912, Final residual = 0.00940792676081, No Iterations 9
time step continuity errors : sum local = 4.76965794341, global = 0.00306468712647, cumulative = 0.174615090946
ExecutionTime = 1.31 s  ClockTime = 1 s

Time = 14

smoothSolver:  Solving for Ux, Initial residual = 0.000618452030818, Final residual = 3.42272026843e-05, No Iterations 4
smoothSolver:  Solving for Uy, Initial residual = 0.103898785737, Final residual = 0.00921749175776, No Iterations 4
smoothSolver:  Solving for Uz, Initial residual = 0.0325291412953, Final residual = 0.0028713317926, No Iterations 4
GAMG:  Solving for p, Initial residual = 0.223355867277, Final residual = 0.00705576177298, No Iterations 10
time step continuity errors : sum local = 3.06914974764, global = 0.0167151650844, cumulative = 0.191330256031
ExecutionTime = 1.4 s  ClockTime = 1 s

Time = 15

smoothSolver:  Solving for Ux, Initial residual = 0.000634459429712, Final residual = 3.48125025724e-05, No Iterations 4
smoothSolver:  Solving for Uy, Initial residual = 0.0908797829348, Final residual = 0.00799706915287, No Iterations 4
smoothSolver:  Solving for Uz, Initial residual = 0.024829525105, Final residual = 0.00215492336866, No Iterations 4
GAMG:  Solving for p, Initial residual = 0.212173064119, Final residual = 0.00922589080275, No Iterations 10
time step continuity errors : sum local = 3.34120132232, global = -0.00141835354668, cumulative = 0.189911902484
ExecutionTime = 1.54 s  ClockTime = 1 s

Time = 16

smoothSolver:  Solving for Ux, Initial residual = 0.000607149188109, Final residual = 3.35073011318e-05, No Iterations 4
smoothSolver:  Solving for Uy, Initial residual = 0.0887409269844, Final residual = 0.00767336833461, No Iterations 4
smoothSolver:  Solving for Uz, Initial residual = 0.0176029772177, Final residual = 0.00149848964459, No Iterations 4
GAMG:  Solving for p, Initial residual = 0.195217802509, Final residual = 0.00589778694056, No Iterations 10
time step continuity errors : sum local = 1.77208180033, global = -0.00961553133996, cumulative = 0.180296371144
ExecutionTime = 1.66 s  ClockTime = 1 s

Time = 17

smoothSolver:  Solving for Ux, Initial residual = 0.000608612823294, Final residual = 3.17983748835e-05, No Iterations 4
smoothSolver:  Solving for Uy, Initial residual = 0.124372583823, Final residual = 0.0105639304878, No Iterations 4
smoothSolver:  Solving for Uz, Initial residual = 0.015770831278, Final residual = 0.00132820910814, No Iterations 4
GAMG:  Solving for p, Initial residual = 0.181576106843, Final residual = 0.00776710196624, No Iterations 10
time step continuity errors : sum local = 1.90917790848, global = -0.00113902133518, cumulative = 0.179157349809
ExecutionTime = 1.77 s  ClockTime = 1 s

Time = 18

smoothSolver:  Solving for Ux, Initial residual = 0.000540677299605, Final residual = 3.06723422372e-05, No Iterations 4
smoothSolver:  Solving for Uy, Initial residual = 0.120003267113, Final residual = 0.0105091882616, No Iterations 4
smoothSolver:  Solving for Uz, Initial residual = 0.0182860911139, Final residual = 0.00159870301516, No Iterations 4
GAMG:  Solving for p, Initial residual = 0.173260336988, Final residual = 0.00623067945646, No Iterations 10
time step continuity errors : sum local = 1.22928204625, global = -0.000765737825966, cumulative = 0.178391611983
ExecutionTime = 1.89 s  ClockTime = 1 s

Time = 19

smoothSolver:  Solving for Ux, Initial residual = 0.000527929570204, Final residual = 2.98160620556e-05, No Iterations 4
smoothSolver:  Solving for Uy, Initial residual = 0.091587399811, Final residual = 0.0080570955395, No Iterations 4
smoothSolver:  Solving for Uz, Initial residual = 0.0170197035176, Final residual = 0.00149682119772, No Iterations 4
GAMG:  Solving for p, Initial residual = 0.172618233677, Final residual = 0.0068420512654, No Iterations 10
time step continuity errors : sum local = 1.08417930239, global = -0.00036584977068, cumulative = 0.178025762212
ExecutionTime = 1.99 s  ClockTime = 2 s

Time = 20

smoothSolver:  Solving for Ux, Initial residual = 0.000502087778573, Final residual = 2.92204459329e-05, No Iterations 4
smoothSolver:  Solving for Uy, Initial residual = 0.0695879040438, Final residual = 0.00599225283408, No Iterations 4
smoothSolver:  Solving for Uz, Initial residual = 0.0127863209704, Final residual = 0.00111413472621, No Iterations 4
GAMG:  Solving for p, Initial residual = 0.161560117214, Final residual = 0.00558628273381, No Iterations 10
time step continuity errors : sum local = 0.778845071003, global = -0.00325877866578, cumulative = 0.174766983547
ExecutionTime = 2.09 s  ClockTime = 2 s

Time = 21

smoothSolver:  Solving for Ux, Initial residual = 0.00049322355142, Final residual = 2.87346800259e-05, No Iterations 4
smoothSolver:  Solving for Uy, Initial residual = 0.0532368482585, Final residual = 0.00446567503161, No Iterations 4
smoothSolver:  Solving for Uz, Initial residual = 0.0087615029249, Final residual = 0.000736197966703, No Iterations 4
GAMG:  Solving for p, Initial residual = 0.150276855681, Final residual = 0.00732558709194, No Iterations 9
time step continuity errors : sum local = 0.903134646584, global = 0.000816296012677, cumulative = 0.175583279559
ExecutionTime = 2.18 s  ClockTime = 2 s

Time = 22

smoothSolver:  Solving for Ux, Initial residual = 0.000474775920462, Final residual = 2.83096427526e-05, No Iterations 4
smoothSolver:  Solving for Uy, Initial residual = 0.0468314219512, Final residual = 0.00380867647179, No Iterations 4
smoothSolver:  Solving for Uz, Initial residual = 0.0065193570416, Final residual = 0.00052634621445, No Iterations 4
GAMG:  Solving for p, Initial residual = 0.138250687601, Final residual = 0.00630845200074, No Iterations 9
time step continuity errors : sum local = 0.680335395326, global = 0.0013025517926, cumulative = 0.176885831352
ExecutionTime = 2.32 s  ClockTime = 2 s

Time = 23

smoothSolver:  Solving for Ux, Initial residual = 0.000476878692434, Final residual = 2.87285317247e-05, No Iterations 4
smoothSolver:  Solving for Uy, Initial residual = 0.0516341175491, Final residual = 0.00431560472567, No Iterations 4
smoothSolver:  Solving for Uz, Initial residual = 0.00652133875749, Final residual = 0.000531742279905, No Iterations 4
GAMG:  Solving for p, Initial residual = 0.126252688673, Final residual = 0.00594428472026, No Iterations 7
time step continuity errors : sum local = 0.554671228314, global = 0.00115833330089, cumulative = 0.178044164653
ExecutionTime = 2.43 s  ClockTime = 2 s

Time = 24

smoothSolver:  Solving for Ux, Initial residual = 0.000486067089253, Final residual = 2.94752114866e-05, No Iterations 4
smoothSolver:  Solving for Uy, Initial residual = 0.0478532309436, Final residual = 0.00406011407508, No Iterations 4
smoothSolver:  Solving for Uz, Initial residual = 0.00667211788472, Final residual = 0.000555501173833, No Iterations 4
GAMG:  Solving for p, Initial residual = 0.118482970816, Final residual = 0.00541259810697, No Iterations 7
time step continuity errors : sum local = 0.431279545856, global = 0.0016903081992, cumulative = 0.179734472852
ExecutionTime = 2.54 s  ClockTime = 2 s

Time = 25

smoothSolver:  Solving for Ux, Initial residual = 0.000494897504071, Final residual = 3.01077649844e-05, No Iterations 4
smoothSolver:  Solving for Uy, Initial residual = 0.0377143664227, Final residual = 0.00313919104605, No Iterations 4
smoothSolver:  Solving for Uz, Initial residual = 0.00607037571121, Final residual = 0.000506225257184, No Iterations 4
GAMG:  Solving for p, Initial residual = 0.119276501868, Final residual = 0.00407611145792, No Iterations 9
time step continuity errors : sum local = 0.274822673594, global = 0.000388086602275, cumulative = 0.180122559454
ExecutionTime = 2.66 s  ClockTime = 2 s

Time = 26

smoothSolver:  Solving for Ux, Initial residual = 0.000495576831298, Final residual = 3.03556083667e-05, No Iterations 4
smoothSolver:  Solving for Uy, Initial residual = 0.0285011617616, Final residual = 0.00229918374505, No Iterations 4
smoothSolver:  Solving for Uz, Initial residual = 0.00521761686185, Final residual = 0.000427420455647, No Iterations 4
GAMG:  Solving for p, Initial residual = 0.118553040482, Final residual = 0.00558652800254, No Iterations 8
time step continuity errors : sum local = 0.330923900353, global = 2.9867220107e-06, cumulative = 0.180125546176
ExecutionTime = 2.78 s  ClockTime = 2 s

Time = 27

smoothSolver:  Solving for Ux, Initial residual = 0.000488005833802, Final residual = 3.04791192462e-05, No Iterations 4
smoothSolver:  Solving for Uy, Initial residual = 0.0217824568575, Final residual = 0.00165695120676, No Iterations 4
smoothSolver:  Solving for Uz, Initial residual = 0.00462393897403, Final residual = 0.000375642352588, No Iterations 4
GAMG:  Solving for p, Initial residual = 0.114995998111, Final residual = 0.00467339756759, No Iterations 8
time step continuity errors : sum local = 0.245469831172, global = -0.00119505768737, cumulative = 0.178930488489
ExecutionTime = 2.89 s  ClockTime = 2 s

Time = 28

smoothSolver:  Solving for Ux, Initial residual = 0.000486122806727, Final residual = 3.05986231939e-05, No Iterations 4
smoothSolver:  Solving for Uy, Initial residual = 0.0200813907244, Final residual = 0.00153725407564, No Iterations 4
smoothSolver:  Solving for Uz, Initial residual = 0.00452825360935, Final residual = 0.000369215506256, No Iterations 4
GAMG:  Solving for p, Initial residual = 0.108654672789, Final residual = 0.00367978487291, No Iterations 8
time step continuity errors : sum local = 0.170857749625, global = -0.00102642670973, cumulative = 0.177904061779
ExecutionTime = 3.02 s  ClockTime = 3 s

Time = 29

smoothSolver:  Solving for Ux, Initial residual = 0.000481535262862, Final residual = 3.06169610747e-05, No Iterations 4
smoothSolver:  Solving for Uy, Initial residual = 0.0191300643168, Final residual = 0.00151026658859, No Iterations 4
smoothSolver:  Solving for Uz, Initial residual = 0.0046296357365, Final residual = 0.000383265742795, No Iterations 4
GAMG:  Solving for p, Initial residual = 0.100779119971, Final residual = 0.00457908562192, No Iterations 7
time step continuity errors : sum local = 0.191061852366, global = -0.000227086614821, cumulative = 0.177676975164
ExecutionTime = 3.12 s  ClockTime = 3 s

Time = 30

smoothSolver:  Solving for Ux, Initial residual = 0.000475461169671, Final residual = 3.05319738602e-05, No Iterations 4
smoothSolver:  Solving for Uy, Initial residual = 0.017410201112, Final residual = 0.00136751343882, No Iterations 4
smoothSolver:  Solving for Uz, Initial residual = 0.00457525314991, Final residual = 0.000381532261085, No Iterations 4
GAMG:  Solving for p, Initial residual = 0.0951966208227, Final residual = 0.00414302166161, No Iterations 6
time step continuity errors : sum local = 0.158283270507, global = -0.000790546269244, cumulative = 0.176886428895
ExecutionTime = 3.21 s  ClockTime = 3 s

Time = 31

smoothSolver:  Solving for Ux, Initial residual = 0.00047137355621, Final residual = 3.05274920631e-05, No Iterations 4
smoothSolver:  Solving for Uy, Initial residual = 0.0150807752632, Final residual = 0.0011589792803, No Iterations 4
smoothSolver:  Solving for Uz, Initial residual = 0.00437035653936, Final residual = 0.000363698271916, No Iterations 4
GAMG:  Solving for p, Initial residual = 0.0940034461244, Final residual = 0.00274650594879, No Iterations 8
time step continuity errors : sum local = 0.0955630950199, global = -0.000399828375364, cumulative = 0.17648660052
ExecutionTime = 3.31 s  ClockTime = 3 s

Time = 32

smoothSolver:  Solving for Ux, Initial residual = 0.000471027555945, Final residual = 3.08033181286e-05, No Iterations 4
smoothSolver:  Solving for Uy, Initial residual = 0.0134452097795, Final residual = 0.00101855524412, No Iterations 4
smoothSolver:  Solving for Uz, Initial residual = 0.00416422237376, Final residual = 0.000344455323721, No Iterations 4
GAMG:  Solving for p, Initial residual = 0.0919884746122, Final residual = 0.00401979489318, No Iterations 7
time step continuity errors : sum local = 0.127053303252, global = -8.64022440624e-05, cumulative = 0.176400198276
ExecutionTime = 3.41 s  ClockTime = 3 s

Time = 33

smoothSolver:  Solving for Ux, Initial residual = 0.000468414578842, Final residual = 3.09273346455e-05, No Iterations 4
smoothSolver:  Solving for Uy, Initial residual = 0.0127016575504, Final residual = 0.000963696376225, No Iterations 4
smoothSolver:  Solving for Uz, Initial residual = 0.0040712836778, Final residual = 0.000337251447922, No Iterations 4
GAMG:  Solving for p, Initial residual = 0.0858729290747, Final residual = 0.0040233756011, No Iterations 6
time step continuity errors : sum local = 0.114954375851, global = 8.86324770994e-05, cumulative = 0.176488830753
ExecutionTime = 3.5 s  ClockTime = 3 s

Time = 34

smoothSolver:  Solving for Ux, Initial residual = 0.000467281871666, Final residual = 3.10439821033e-05, No Iterations 4
smoothSolver:  Solving for Uy, Initial residual = 0.0125316556363, Final residual = 0.000973615371416, No Iterations 4
smoothSolver:  Solving for Uz, Initial residual = 0.00404224017524, Final residual = 0.000336404722668, No Iterations 4
GAMG:  Solving for p, Initial residual = 0.0821134453834, Final residual = 0.00301744177431, No Iterations 5
time step continuity errors : sum local = 0.0781314039314, global = 0.000658390166746, cumulative = 0.17714722092
ExecutionTime = 3.6 s  ClockTime = 3 s

Time = 35

smoothSolver:  Solving for Ux, Initial residual = 0.000465155146002, Final residual = 3.11169414737e-05, No Iterations 4
smoothSolver:  Solving for Uy, Initial residual = 0.0120967624464, Final residual = 0.000951129908257, No Iterations 4
smoothSolver:  Solving for Uz, Initial residual = 0.00401165396318, Final residual = 0.000335078060716, No Iterations 4
GAMG:  Solving for p, Initial residual = 0.0793772477032, Final residual = 0.00244614529132, No Iterations 5
time step continuity errors : sum local = 0.0572244874356, global = 0.000555693355243, cumulative = 0.177702914275
ExecutionTime = 3.69 s  ClockTime = 3 s

Time = 36

smoothSolver:  Solving for Ux, Initial residual = 0.000463253938122, Final residual = 3.11827746184e-05, No Iterations 4
smoothSolver:  Solving for Uy, Initial residual = 0.0112666557238, Final residual = 0.00088175126626, No Iterations 4
smoothSolver:  Solving for Uz, Initial residual = 0.00396291798575, Final residual = 0.000331987430418, No Iterations 4
GAMG:  Solving for p, Initial residual = 0.0779532135103, Final residual = 0.00245834042642, No Iterations 6
time step continuity errors : sum local = 0.0520429602802, global = -0.000176476599144, cumulative = 0.177526437676
ExecutionTime = 3.78 s  ClockTime = 3 s

Time = 37

smoothSolver:  Solving for Ux, Initial residual = 0.00045954983687, Final residual = 3.11520776822e-05, No Iterations 4
smoothSolver:  Solving for Uy, Initial residual = 0.0106370849768, Final residual = 0.000830772274771, No Iterations 4
smoothSolver:  Solving for Uz, Initial residual = 0.00390159778406, Final residual = 0.000327667342319, No Iterations 4
GAMG:  Solving for p, Initial residual = 0.0781843530614, Final residual = 0.0031983283015, No Iterations 6
time step continuity errors : sum local = 0.0609635612608, global = -5.78772423507e-05, cumulative = 0.177468560433
ExecutionTime = 3.88 s  ClockTime = 3 s

Time = 38

smoothSolver:  Solving for Ux, Initial residual = 0.000452861046919, Final residual = 3.10525454508e-05, No Iterations 4
smoothSolver:  Solving for Uy, Initial residual = 0.010068642091, Final residual = 0.000785923516126, No Iterations 4
smoothSolver:  Solving for Uz, Initial residual = 0.00385561405442, Final residual = 0.0003245843288, No Iterations 4
GAMG:  Solving for p, Initial residual = 0.0759268969608, Final residual = 0.00279485677821, No Iterations 6
time step continuity errors : sum local = 0.0487020694162, global = -0.000268380741968, cumulative = 0.177200179691
ExecutionTime = 3.98 s  ClockTime = 4 s

Time = 39

smoothSolver:  Solving for Ux, Initial residual = 0.000446269640274, Final residual = 3.09597436451e-05, No Iterations 4
smoothSolver:  Solving for Uy, Initial residual = 0.00972228215547, Final residual = 0.000761119041919, No Iterations 4
smoothSolver:  Solving for Uz, Initial residual = 0.00382641724855, Final residual = 0.000322810542092, No Iterations 4
GAMG:  Solving for p, Initial residual = 0.0728318825267, Final residual = 0.00265883143541, No Iterations 4
time step continuity errors : sum local = 0.0425901485334, global = -0.000270520883399, cumulative = 0.176929658808
ExecutionTime = 4.07 s  ClockTime = 4 s

Time = 40

smoothSolver:  Solving for Ux, Initial residual = 0.000440171363653, Final residual = 3.08354493187e-05, No Iterations 4
smoothSolver:  Solving for Uy, Initial residual = 0.00955057078442, Final residual = 0.000753510282427, No Iterations 4
smoothSolver:  Solving for Uz, Initial residual = 0.00379712701427, Final residual = 0.000320984712805, No Iterations 4
GAMG:  Solving for p, Initial residual = 0.0696697506246, Final residual = 0.0018491024048, No Iterations 4
time step continuity errors : sum local = 0.0274316491255, global = -0.000106373535349, cumulative = 0.176823285273
ExecutionTime = 4.17 s  ClockTime = 4 s

Time = 41

smoothSolver:  Solving for Ux, Initial residual = 0.000434722469, Final residual = 3.07151684868e-05, No Iterations 4
smoothSolver:  Solving for Uy, Initial residual = 0.00936041894691, Final residual = 0.000742289219851, No Iterations 4
smoothSolver:  Solving for Uz, Initial residual = 0.00376400049578, Final residual = 0.000318738215322, No Iterations 4
GAMG:  Solving for p, Initial residual = 0.0669081442624, Final residual = 0.00169431950309, No Iterations 4
time step continuity errors : sum local = 0.0235073094106, global = -5.75024185155e-05, cumulative = 0.176765782854
ExecutionTime = 4.26 s  ClockTime = 4 s

Time = 42

smoothSolver:  Solving for Ux, Initial residual = 0.000429645886389, Final residual = 3.06432941038e-05, No Iterations 4
smoothSolver:  Solving for Uy, Initial residual = 0.00917470877635, Final residual = 0.00073213941062, No Iterations 4
smoothSolver:  Solving for Uz, Initial residual = 0.00373620796596, Final residual = 0.00031697592098, No Iterations 4
GAMG:  Solving for p, Initial residual = 0.0641631965768, Final residual = 0.0025317738125, No Iterations 4
time step continuity errors : sum local = 0.0328767969039, global = -0.000260041530612, cumulative = 0.176505741323
ExecutionTime = 4.35 s  ClockTime = 4 s

Time = 43

smoothSolver:  Solving for Ux, Initial residual = 0.000424592036553, Final residual = 3.05365186073e-05, No Iterations 4
smoothSolver:  Solving for Uy, Initial residual = 0.0090090012369, Final residual = 0.00072326559299, No Iterations 4
smoothSolver:  Solving for Uz, Initial residual = 0.00370292894996, Final residual = 0.000314642630776, No Iterations 4
GAMG:  Solving for p, Initial residual = 0.0616833470159, Final residual = 0.00234863171207, No Iterations 4
time step continuity errors : sum local = 0.0284885415402, global = -0.000299842487862, cumulative = 0.176205898836
ExecutionTime = 4.46 s  ClockTime = 4 s

Time = 44

smoothSolver:  Solving for Ux, Initial residual = 0.000419728635606, Final residual = 3.04273623628e-05, No Iterations 4
smoothSolver:  Solving for Uy, Initial residual = 0.00884861406647, Final residual = 0.00071471864815, No Iterations 4
smoothSolver:  Solving for Uz, Initial residual = 0.00367191975585, Final residual = 0.000312530154163, No Iterations 4
GAMG:  Solving for p, Initial residual = 0.0592640375562, Final residual = 0.00201033081957, No Iterations 4
time step continuity errors : sum local = 0.0227955800909, global = -0.000198787610137, cumulative = 0.176007111225
ExecutionTime = 4.55 s  ClockTime = 4 s

Time = 45

smoothSolver:  Solving for Ux, Initial residual = 0.000414375270737, Final residual = 3.02919345333e-05, No Iterations 4
smoothSolver:  Solving for Uy, Initial residual = 0.0086912591045, Final residual = 0.000706262674743, No Iterations 4
smoothSolver:  Solving for Uz, Initial residual = 0.00364274661776, Final residual = 0.000310562548628, No Iterations 4
GAMG:  Solving for p, Initial residual = 0.0566918305945, Final residual = 0.00131593576684, No Iterations 4
time step continuity errors : sum local = 0.0139991205324, global = -8.07013427422e-05, cumulative = 0.175926409883
ExecutionTime = 4.63 s  ClockTime = 4 s

Time = 46

smoothSolver:  Solving for Ux, Initial residual = 0.000408877837181, Final residual = 3.01163037057e-05, No Iterations 4
smoothSolver:  Solving for Uy, Initial residual = 0.0085397494526, Final residual = 0.000697785011076, No Iterations 4
smoothSolver:  Solving for Uz, Initial residual = 0.00361611948581, Final residual = 0.000308839078555, No Iterations 4
GAMG:  Solving for p, Initial residual = 0.0540786200399, Final residual = 0.00220948025256, No Iterations 3
time step continuity errors : sum local = 0.0221291356656, global = -4.23274531555e-05, cumulative = 0.17588408243
ExecutionTime = 4.74 s  ClockTime = 4 s

Time = 47

smoothSolver:  Solving for Ux, Initial residual = 0.000404174404045, Final residual = 2.99822584524e-05, No Iterations 4
smoothSolver:  Solving for Uy, Initial residual = 0.00840470143643, Final residual = 0.000688946400109, No Iterations 4
smoothSolver:  Solving for Uz, Initial residual = 0.00359164666064, Final residual = 0.000307153700424, No Iterations 4
GAMG:  Solving for p, Initial residual = 0.0518393682326, Final residual = 0.000984854345458, No Iterations 4
time step continuity errors : sum local = 0.00935535807648, global = 4.72391998663e-05, cumulative = 0.175931321629
ExecutionTime = 4.85 s  ClockTime = 4 s

Time = 48

smoothSolver:  Solving for Ux, Initial residual = 0.000398876113471, Final residual = 2.9800063379e-05, No Iterations 4
smoothSolver:  Solving for Uy, Initial residual = 0.00823558658344, Final residual = 0.000677972455049, No Iterations 4
smoothSolver:  Solving for Uz, Initial residual = 0.00356403496162, Final residual = 0.000305206447731, No Iterations 4
GAMG:  Solving for p, Initial residual = 0.049757259877, Final residual = 0.00135152613923, No Iterations 4
time step continuity errors : sum local = 0.0121247167457, global = 7.73637907264e-05, cumulative = 0.17600868542
ExecutionTime = 4.95 s  ClockTime = 5 s

Time = 49

smoothSolver:  Solving for Ux, Initial residual = 0.000393688711033, Final residual = 2.96129256935e-05, No Iterations 4
smoothSolver:  Solving for Uy, Initial residual = 0.00807314783425, Final residual = 0.000666830968595, No Iterations 4
smoothSolver:  Solving for Uz, Initial residual = 0.0035374630896, Final residual = 0.000303309396865, No Iterations 4
GAMG:  Solving for p, Initial residual = 0.0476794195658, Final residual = 0.00137840181218, No Iterations 4
time step continuity errors : sum local = 0.0117103399969, global = 0.000146011416488, cumulative = 0.176154696837
ExecutionTime = 5.04 s  ClockTime = 5 s

Time = 50

smoothSolver:  Solving for Ux, Initial residual = 0.000388577965923, Final residual = 2.9417181667e-05, No Iterations 4
smoothSolver:  Solving for Uy, Initial residual = 0.00791921694562, Final residual = 0.000655865876686, No Iterations 4
smoothSolver:  Solving for Uz, Initial residual = 0.00351173735985, Final residual = 0.000301471578897, No Iterations 4
GAMG:  Solving for p, Initial residual = 0.0454678967244, Final residual = 0.00115755609272, No Iterations 4
time step continuity errors : sum local = 0.00936917671982, global = 9.8984751612e-05, cumulative = 0.176253681588
ExecutionTime = 5.15 s  ClockTime = 5 s

Time = 51

smoothSolver:  Solving for Ux, Initial residual = 0.00038373865777, Final residual = 2.9223701651e-05, No Iterations 4
smoothSolver:  Solving for Uy, Initial residual = 0.00778483995137, Final residual = 0.000646292276126, No Iterations 4
smoothSolver:  Solving for Uz, Initial residual = 0.00348679008678, Final residual = 0.000299677184603, No Iterations 4
GAMG:  Solving for p, Initial residual = 0.0434261065784, Final residual = 0.00180469018565, No Iterations 2
time step continuity errors : sum local = 0.0139241751976, global = 8.9469417751e-05, cumulative = 0.176343151006
ExecutionTime = 5.25 s  ClockTime = 5 s

Time = 52

smoothSolver:  Solving for Ux, Initial residual = 0.000379331760101, Final residual = 2.90293932509e-05, No Iterations 4
smoothSolver:  Solving for Uy, Initial residual = 0.00767987553744, Final residual = 0.000638354301596, No Iterations 4
smoothSolver:  Solving for Uz, Initial residual = 0.00346060403751, Final residual = 0.000297709708019, No Iterations 4
GAMG:  Solving for p, Initial residual = 0.0418850765803, Final residual = 0.00169833661478, No Iterations 2
time step continuity errors : sum local = 0.0126007328608, global = 6.13368649246e-06, cumulative = 0.176349284693
ExecutionTime = 5.35 s  ClockTime = 5 s

Time = 53

smoothSolver:  Solving for Ux, Initial residual = 0.000374640848832, Final residual = 2.881191416e-05, No Iterations 4
smoothSolver:  Solving for Uy, Initial residual = 0.00756395672971, Final residual = 0.000630829625969, No Iterations 4
smoothSolver:  Solving for Uz, Initial residual = 0.00343444037933, Final residual = 0.000295824708971, No Iterations 4
GAMG:  Solving for p, Initial residual = 0.0400361052562, Final residual = 0.001037020115, No Iterations 4
time step continuity errors : sum local = 0.00739230831572, global = 3.39514331507e-05, cumulative = 0.176383236126
ExecutionTime = 5.46 s  ClockTime = 5 s

Time = 54

smoothSolver:  Solving for Ux, Initial residual = 0.000370249935118, Final residual = 2.86071690122e-05, No Iterations 4
smoothSolver:  Solving for Uy, Initial residual = 0.0074517860168, Final residual = 0.000623433887153, No Iterations 4
smoothSolver:  Solving for Uz, Initial residual = 0.00340907799932, Final residual = 0.000293936857377, No Iterations 4
GAMG:  Solving for p, Initial residual = 0.0380021973462, Final residual = 0.00170582954507, No Iterations 2
time step continuity errors : sum local = 0.0116886021298, global = 8.85328426265e-05, cumulative = 0.176471768968
ExecutionTime = 5.55 s  ClockTime = 5 s

Time = 55

smoothSolver:  Solving for Ux, Initial residual = 0.000366086007659, Final residual = 2.84063788268e-05, No Iterations 4
smoothSolver:  Solving for Uy, Initial residual = 0.00734652143925, Final residual = 0.000616284706327, No Iterations 4
smoothSolver:  Solving for Uz, Initial residual = 0.0033844708226, Final residual = 0.000292146479857, No Iterations 4
GAMG:  Solving for p, Initial residual = 0.0360485675453, Final residual = 0.00107104443173, No Iterations 4
time step continuity errors : sum local = 0.00708673267722, global = 9.8718029805e-05, cumulative = 0.176570486998
ExecutionTime = 5.65 s  ClockTime = 5 s

Time = 56

smoothSolver:  Solving for Ux, Initial residual = 0.000362220773185, Final residual = 2.82113552982e-05, No Iterations 4
smoothSolver:  Solving for Uy, Initial residual = 0.00723935002864, Final residual = 0.000608911153233, No Iterations 4
smoothSolver:  Solving for Uz, Initial residual = 0.00335751054925, Final residual = 0.00029013510919, No Iterations 4
GAMG:  Solving for p, Initial residual = 0.034285722964, Final residual = 0.000838078478764, No Iterations 4
time step continuity errors : sum local = 0.00535093165505, global = 6.1515700585e-05, cumulative = 0.176632002699
ExecutionTime = 5.75 s  ClockTime = 5 s

Time = 57

smoothSolver:  Solving for Ux, Initial residual = 0.000358775193786, Final residual = 2.80537813984e-05, No Iterations 4
smoothSolver:  Solving for Uy, Initial residual = 0.00714554606037, Final residual = 0.000602597196333, No Iterations 4
smoothSolver:  Solving for Uz, Initial residual = 0.0033339723834, Final residual = 0.000288394750201, No Iterations 4
GAMG:  Solving for p, Initial residual = 0.0325422025317, Final residual = 0.00138750792855, No Iterations 2
time step continuity errors : sum local = 0.00857424589358, global = 2.54703482929e-05, cumulative = 0.176657473047
ExecutionTime = 5.86 s  ClockTime = 5 s

Time = 58

smoothSolver:  Solving for Ux, Initial residual = 0.00035631534438, Final residual = 2.79294356193e-05, No Iterations 4
smoothSolver:  Solving for Uy, Initial residual = 0.00706422684836, Final residual = 0.000596274551859, No Iterations 4
smoothSolver:  Solving for Uz, Initial residual = 0.00331249083332, Final residual = 0.000286802710703, No Iterations 4
GAMG:  Solving for p, Initial residual = 0.0313856691443, Final residual = 0.00155054178007, No Iterations 2
time step continuity errors : sum local = 0.00934132354313, global = 2.93517495054e-05, cumulative = 0.176686824796
ExecutionTime = 5.95 s  ClockTime = 6 s

Time = 59

smoothSolver:  Solving for Ux, Initial residual = 0.000353585536639, Final residual = 2.77800546081e-05, No Iterations 4
smoothSolver:  Solving for Uy, Initial residual = 0.00695750626395, Final residual = 0.000589199292241, No Iterations 4
smoothSolver:  Solving for Uz, Initial residual = 0.00329002204878, Final residual = 0.000285166560669, No Iterations 4
GAMG:  Solving for p, Initial residual = 0.0298394939196, Final residual = 0.00095711937713, No Iterations 4
time step continuity errors : sum local = 0.00561307136631, global = 5.78929701221e-05, cumulative = 0.176744717767
ExecutionTime = 6.04 s  ClockTime = 6 s

Time = 60

smoothSolver:  Solving for Ux, Initial residual = 0.000350893479492, Final residual = 2.76245057238e-05, No Iterations 4
smoothSolver:  Solving for Uy, Initial residual = 0.00683881561255, Final residual = 0.000580608698831, No Iterations 4
smoothSolver:  Solving for Uz, Initial residual = 0.00326660434838, Final residual = 0.000283377162445, No Iterations 4
GAMG:  Solving for p, Initial residual = 0.0282596930028, Final residual = 0.00132623455009, No Iterations 2
time step continuity errors : sum local = 0.00754235911274, global = 5.98392704634e-05, cumulative = 0.176804557037
ExecutionTime = 6.14 s  ClockTime = 6 s

Time = 61

smoothSolver:  Solving for Ux, Initial residual = 0.000348675404795, Final residual = 2.75029799797e-05, No Iterations 4
smoothSolver:  Solving for Uy, Initial residual = 0.00674649598468, Final residual = 0.000573927197798, No Iterations 4
smoothSolver:  Solving for Uz, Initial residual = 0.00324706718198, Final residual = 0.000281924217481, No Iterations 4
GAMG:  Solving for p, Initial residual = 0.026730243089, Final residual = 0.000514379344562, No Iterations 4
time step continuity errors : sum local = 0.00285700910105, global = 9.84823328728e-05, cumulative = 0.17690303937
ExecutionTime = 6.25 s  ClockTime = 6 s

Time = 62

smoothSolver:  Solving for Ux, Initial residual = 0.000346741562081, Final residual = 2.73975506482e-05, No Iterations 4
smoothSolver:  Solving for Uy, Initial residual = 0.00665557683593, Final residual = 0.000567347604326, No Iterations 4
smoothSolver:  Solving for Uz, Initial residual = 0.0032279786005, Final residual = 0.000280487634867, No Iterations 4
GAMG:  Solving for p, Initial residual = 0.0253758255617, Final residual = 0.000523531832786, No Iterations 4
time step continuity errors : sum local = 0.0028269606577, global = 5.96984633571e-05, cumulative = 0.176962737833
ExecutionTime = 6.35 s  ClockTime = 6 s

Time = 63

smoothSolver:  Solving for Ux, Initial residual = 0.000345245790207, Final residual = 2.73037602335e-05, No Iterations 4
smoothSolver:  Solving for Uy, Initial residual = 0.0065806287939, Final residual = 0.000561246920349, No Iterations 4
smoothSolver:  Solving for Uz, Initial residual = 0.00320780244042, Final residual = 0.000278922456686, No Iterations 4
GAMG:  Solving for p, Initial residual = 0.0246442197539, Final residual = 0.00109272188771, No Iterations 2
time step continuity errors : sum local = 0.00577190183082, global = 1.3660419717e-05, cumulative = 0.176976398253
ExecutionTime = 6.44 s  ClockTime = 6 s

Time = 64

smoothSolver:  Solving for Ux, Initial residual = 0.000343424568328, Final residual = 2.71891964917e-05, No Iterations 4
smoothSolver:  Solving for Uy, Initial residual = 0.00649994357357, Final residual = 0.000555782974462, No Iterations 4
smoothSolver:  Solving for Uz, Initial residual = 0.00318680611793, Final residual = 0.000277378820665, No Iterations 4
GAMG:  Solving for p, Initial residual = 0.023463289615, Final residual = 0.000619117227156, No Iterations 4
time step continuity errors : sum local = 0.00320829473835, global = 1.24506495614e-05, cumulative = 0.176988848903
ExecutionTime = 6.53 s  ClockTime = 6 s

Time = 65

smoothSolver:  Solving for Ux, Initial residual = 0.000341957346042, Final residual = 2.7121590134e-05, No Iterations 4
smoothSolver:  Solving for Uy, Initial residual = 0.00642309422564, Final residual = 0.000550139728406, No Iterations 4
smoothSolver:  Solving for Uz, Initial residual = 0.00317014315724, Final residual = 0.000276082222802, No Iterations 4
GAMG:  Solving for p, Initial residual = 0.0221696244295, Final residual = 0.00110749350568, No Iterations 2
time step continuity errors : sum local = 0.00560848589094, global = 3.34659442989e-05, cumulative = 0.177022314847
ExecutionTime = 6.62 s  ClockTime = 6 s

Time = 66

smoothSolver:  Solving for Ux, Initial residual = 0.000340770698436, Final residual = 2.70622672626e-05, No Iterations 4
smoothSolver:  Solving for Uy, Initial residual = 0.00635232448923, Final residual = 0.000544900720083, No Iterations 4
smoothSolver:  Solving for Uz, Initial residual = 0.00315441681414, Final residual = 0.000274853594093, No Iterations 4
GAMG:  Solving for p, Initial residual = 0.0210530794045, Final residual = 0.0010115425521, No Iterations 3
time step continuity errors : sum local = 0.00503495222947, global = -9.03033952659e-05, cumulative = 0.176932011452
ExecutionTime = 6.71 s  ClockTime = 6 s

Time = 67

smoothSolver:  Solving for Ux, Initial residual = 0.000339427091435, Final residual = 2.69870908256e-05, No Iterations 4
smoothSolver:  Solving for Uy, Initial residual = 0.00627752387336, Final residual = 0.000539347524913, No Iterations 4
smoothSolver:  Solving for Uz, Initial residual = 0.00313536529676, Final residual = 0.000273316289317, No Iterations 4
GAMG:  Solving for p, Initial residual = 0.0199766843945, Final residual = 0.000567673629709, No Iterations 4
time step continuity errors : sum local = 0.00276588285006, global = 7.97733661983e-06, cumulative = 0.176939988788
ExecutionTime = 6.81 s  ClockTime = 6 s

Time = 68

smoothSolver:  Solving for Ux, Initial residual = 0.000338275868711, Final residual = 2.69309116883e-05, No Iterations 4
smoothSolver:  Solving for Uy, Initial residual = 0.00620580456763, Final residual = 0.000534047308287, No Iterations 4
smoothSolver:  Solving for Uz, Initial residual = 0.00311798143373, Final residual = 0.000271934227437, No Iterations 4
GAMG:  Solving for p, Initial residual = 0.0189772592, Final residual = 0.000922158141674, No Iterations 3
time step continuity errors : sum local = 0.00440425802322, global = 1.73708378036e-05, cumulative = 0.176957359626
ExecutionTime = 6.9 s  ClockTime = 6 s

Time = 69

smoothSolver:  Solving for Ux, Initial residual = 0.0003376533814, Final residual = 2.6875408283e-05, No Iterations 4
smoothSolver:  Solving for Uy, Initial residual = 0.00614561896, Final residual = 0.00052901895737, No Iterations 4
smoothSolver:  Solving for Uz, Initial residual = 0.00309911901704, Final residual = 0.000270420809619, No Iterations 4
GAMG:  Solving for p, Initial residual = 0.0185850384253, Final residual = 0.000539640933047, No Iterations 4
time step continuity errors : sum local = 0.00254193844409, global = -3.08275014008e-05, cumulative = 0.176926532125
ExecutionTime = 6.99 s  ClockTime = 7 s

Time = 70

smoothSolver:  Solving for Ux, Initial residual = 0.000336060826575, Final residual = 2.68125541535e-05, No Iterations 4
smoothSolver:  Solving for Uy, Initial residual = 0.00607658543969, Final residual = 0.000524295385045, No Iterations 4
smoothSolver:  Solving for Uz, Initial residual = 0.00307957062872, Final residual = 0.000268883685534, No Iterations 4
GAMG:  Solving for p, Initial residual = 0.0177402468086, Final residual = 0.000850007886134, No Iterations 3
time step continuity errors : sum local = 0.0039360652564, global = 2.75864526524e-05, cumulative = 0.176954118577
ExecutionTime = 7.09 s  ClockTime = 7 s

Time = 71

smoothSolver:  Solving for Ux, Initial residual = 0.000335140728426, Final residual = 2.67772178856e-05, No Iterations 4
smoothSolver:  Solving for Uy, Initial residual = 0.00601781101562, Final residual = 0.000520005745089, No Iterations 4
smoothSolver:  Solving for Uz, Initial residual = 0.00306357222436, Final residual = 0.000267586608854, No Iterations 4
GAMG:  Solving for p, Initial residual = 0.0168678983006, Final residual = 0.000458001116946, No Iterations 4
time step continuity errors : sum local = 0.00208915268144, global = -1.44915160852e-06, cumulative = 0.176952669426
ExecutionTime = 7.18 s  ClockTime = 7 s

Time = 72

smoothSolver:  Solving for Ux, Initial residual = 0.000334036211245, Final residual = 2.67152155749e-05, No Iterations 4
smoothSolver:  Solving for Uy, Initial residual = 0.00595631000621, Final residual = 0.000515404362164, No Iterations 4
smoothSolver:  Solving for Uz, Initial residual = 0.00304388299224, Final residual = 0.00026596258145, No Iterations 4
GAMG:  Solving for p, Initial residual = 0.0160678879823, Final residual = 0.000365527161508, No Iterations 4
time step continuity errors : sum local = 0.0016402676395, global = 6.75936014945e-06, cumulative = 0.176959428786
ExecutionTime = 7.27 s  ClockTime = 7 s

Time = 73

smoothSolver:  Solving for Ux, Initial residual = 0.000333348197938, Final residual = 2.66613013135e-05, No Iterations 4
smoothSolver:  Solving for Uy, Initial residual = 0.00589879797166, Final residual = 0.000511147695392, No Iterations 4
smoothSolver:  Solving for Uz, Initial residual = 0.00302459197495, Final residual = 0.000264420693301, No Iterations 4
GAMG:  Solving for p, Initial residual = 0.0153376661515, Final residual = 0.000721229237359, No Iterations 3
time step continuity errors : sum local = 0.00318706974628, global = -1.63048726872e-06, cumulative = 0.176957798299
ExecutionTime = 7.36 s  ClockTime = 7 s

Time = 74

smoothSolver:  Solving for Ux, Initial residual = 0.000332248049174, Final residual = 2.66385657572e-05, No Iterations 4
smoothSolver:  Solving for Uy, Initial residual = 0.00584983597271, Final residual = 0.000506909292255, No Iterations 4
smoothSolver:  Solving for Uz, Initial residual = 0.00300719325686, Final residual = 0.000262929010169, No Iterations 4
GAMG:  Solving for p, Initial residual = 0.0151585126679, Final residual = 0.000394565184612, No Iterations 4
time step continuity errors : sum local = 0.00172401912643, global = -3.60445164397e-05, cumulative = 0.176921753782
ExecutionTime = 7.45 s  ClockTime = 7 s

Time = 75

smoothSolver:  Solving for Ux, Initial residual = 0.000331516998684, Final residual = 2.659041364e-05, No Iterations 4
smoothSolver:  Solving for Uy, Initial residual = 0.00578930857822, Final residual = 0.000502645734852, No Iterations 4
smoothSolver:  Solving for Uz, Initial residual = 0.00298786547122, Final residual = 0.000261343907229, No Iterations 4
GAMG:  Solving for p, Initial residual = 0.0145870539167, Final residual = 0.000349747162147, No Iterations 4
time step continuity errors : sum local = 0.00150572444032, global = -2.55069253582e-05, cumulative = 0.176896246857
ExecutionTime = 7.54 s  ClockTime = 7 s

Time = 76

smoothSolver:  Solving for Ux, Initial residual = 0.000330339203777, Final residual = 2.65226427085e-05, No Iterations 4
smoothSolver:  Solving for Uy, Initial residual = 0.00573466045134, Final residual = 0.000498508245446, No Iterations 4
smoothSolver:  Solving for Uz, Initial residual = 0.00296622707228, Final residual = 0.000259530282227, No Iterations 4
GAMG:  Solving for p, Initial residual = 0.0139810706739, Final residual = 0.000657264451149, No Iterations 3
time step continuity errors : sum local = 0.00279027494837, global = 1.12511611959e-05, cumulative = 0.176907498018
ExecutionTime = 7.63 s  ClockTime = 7 s

Time = 77

smoothSolver:  Solving for Ux, Initial residual = 0.000329016530197, Final residual = 2.63862472231e-05, No Iterations 4
smoothSolver:  Solving for Uy, Initial residual = 0.00568121886152, Final residual = 0.000494280717288, No Iterations 4
smoothSolver:  Solving for Uz, Initial residual = 0.00293748866638, Final residual = 0.000257054206108, No Iterations 4
GAMG:  Solving for p, Initial residual = 0.0134205626644, Final residual = 0.000296968142889, No Iterations 4
time step continuity errors : sum local = 0.00124499193648, global = 3.9330285551e-05, cumulative = 0.176946828304
ExecutionTime = 7.73 s  ClockTime = 7 s

Time = 78

smoothSolver:  Solving for Ux, Initial residual = 0.000327545605769, Final residual = 2.62616320665e-05, No Iterations 4
smoothSolver:  Solving for Uy, Initial residual = 0.00563130648361, Final residual = 0.000489915111741, No Iterations 4
smoothSolver:  Solving for Uz, Initial residual = 0.00291160354936, Final residual = 0.00025485646523, No Iterations 4
GAMG:  Solving for p, Initial residual = 0.0133242723089, Final residual = 0.000306878523775, No Iterations 4
time step continuity errors : sum local = 0.00127243738727, global = 1.77377773953e-06, cumulative = 0.176948602081
ExecutionTime = 7.82 s  ClockTime = 7 s

Time = 79

smoothSolver:  Solving for Ux, Initial residual = 0.000326367511876, Final residual = 2.62432199415e-05, No Iterations 4
smoothSolver:  Solving for Uy, Initial residual = 0.00558097827926, Final residual = 0.000486376257721, No Iterations 4
smoothSolver:  Solving for Uz, Initial residual = 0.00289802154835, Final residual = 0.000253799009315, No Iterations 4
GAMG:  Solving for p, Initial residual = 0.0128801790911, Final residual = 0.000295024875263, No Iterations 4
time step continuity errors : sum local = 0.00120716734488, global = -1.20735371736e-05, cumulative = 0.176936528544
ExecutionTime = 7.91 s  ClockTime = 8 s

Time = 80

smoothSolver:  Solving for Ux, Initial residual = 0.000325669496384, Final residual = 2.62363463879e-05, No Iterations 4
smoothSolver:  Solving for Uy, Initial residual = 0.00553632341239, Final residual = 0.000483011005999, No Iterations 4
smoothSolver:  Solving for Uz, Initial residual = 0.0028850560336, Final residual = 0.000252768176297, No Iterations 4
GAMG:  Solving for p, Initial residual = 0.0123943616566, Final residual = 0.00028662648033, No Iterations 4
time step continuity errors : sum local = 0.00115804193564, global = 7.9706004527e-08, cumulative = 0.17693660825
ExecutionTime = 7.99 s  ClockTime = 8 s

Time = 81

smoothSolver:  Solving for Ux, Initial residual = 0.000325320627305, Final residual = 2.62516835611e-05, No Iterations 4
smoothSolver:  Solving for Uy, Initial residual = 0.00549534647307, Final residual = 0.000479799409692, No Iterations 4
smoothSolver:  Solving for Uz, Initial residual = 0.00287449514184, Final residual = 0.000251934021675, No Iterations 4
GAMG:  Solving for p, Initial residual = 0.0119476566524, Final residual = 0.000275684734166, No Iterations 4
time step continuity errors : sum local = 0.00110020927757, global = 7.40522318463e-06, cumulative = 0.176944013473
ExecutionTime = 8.08 s  ClockTime = 8 s

Time = 82

smoothSolver:  Solving for Ux, Initial residual = 0.000324901639546, Final residual = 2.62496309596e-05, No Iterations 4
smoothSolver:  Solving for Uy, Initial residual = 0.00545502756064, Final residual = 0.000476581881787, No Iterations 4
smoothSolver:  Solving for Uz, Initial residual = 0.00286206584022, Final residual = 0.000250940077153, No Iterations 4
GAMG:  Solving for p, Initial residual = 0.0115375881738, Final residual = 0.000266331817107, No Iterations 4
time step continuity errors : sum local = 0.00105015772283, global = 8.70681654278e-06, cumulative = 0.17695272029
ExecutionTime = 8.16 s  ClockTime = 8 s

Time = 83

smoothSolver:  Solving for Ux, Initial residual = 0.000324801540557, Final residual = 2.62614474755e-05, No Iterations 4
smoothSolver:  Solving for Uy, Initial residual = 0.00541977943287, Final residual = 0.00047320565266, No Iterations 4
smoothSolver:  Solving for Uz, Initial residual = 0.00284981342664, Final residual = 0.000249922076509, No Iterations 4
GAMG:  Solving for p, Initial residual = 0.0115541833115, Final residual = 0.000260503759706, No Iterations 4
time step continuity errors : sum local = 0.00101707136648, global = 3.46853415632e-06, cumulative = 0.176956188824
ExecutionTime = 8.25 s  ClockTime = 8 s

Time = 84

smoothSolver:  Solving for Ux, Initial residual = 0.000324112014524, Final residual = 2.6213899537e-05, No Iterations 4
smoothSolver:  Solving for Uy, Initial residual = 0.00537632649277, Final residual = 0.000469939142248, No Iterations 4
smoothSolver:  Solving for Uz, Initial residual = 0.00283248670211, Final residual = 0.000248515366129, No Iterations 4
GAMG:  Solving for p, Initial residual = 0.0112412215041, Final residual = 0.000248889796282, No Iterations 4
time step continuity errors : sum local = 0.000960143157732, global = 1.05304542705e-05, cumulative = 0.176966719278
ExecutionTime = 8.38 s  ClockTime = 8 s

Time = 85

smoothSolver:  Solving for Ux, Initial residual = 0.000323692740307, Final residual = 2.62069820271e-05, No Iterations 4
smoothSolver:  Solving for Uy, Initial residual = 0.00533932628412, Final residual = 0.000466938316066, No Iterations 4
smoothSolver:  Solving for Uz, Initial residual = 0.00282003587255, Final residual = 0.000247501115998, No Iterations 4
GAMG:  Solving for p, Initial residual = 0.0109001516385, Final residual = 0.000228310915073, No Iterations 4
time step continuity errors : sum local = 0.000870350258903, global = 2.22737026137e-05, cumulative = 0.176988992981
ExecutionTime = 8.51 s  ClockTime = 8 s

Time = 86

smoothSolver:  Solving for Ux, Initial residual = 0.000323022149732, Final residual = 2.61617824418e-05, No Iterations 4
smoothSolver:  Solving for Uy, Initial residual = 0.00530156683866, Final residual = 0.000463826866662, No Iterations 4
smoothSolver:  Solving for Uz, Initial residual = 0.00280346549488, Final residual = 0.000246121319179, No Iterations 4
GAMG:  Solving for p, Initial residual = 0.0105951354061, Final residual = 0.000220029801144, No Iterations 4
time step continuity errors : sum local = 0.000829032667867, global = 2.88027431408e-05, cumulative = 0.177017795724
ExecutionTime = 8.61 s  ClockTime = 8 s

Time = 87

smoothSolver:  Solving for Ux, Initial residual = 0.000322751549383, Final residual = 2.61544306647e-05, No Iterations 4
smoothSolver:  Solving for Uy, Initial residual = 0.00526845524913, Final residual = 0.000460675792912, No Iterations 4
smoothSolver:  Solving for Uz, Initial residual = 0.00279001080744, Final residual = 0.000244986682392, No Iterations 4
GAMG:  Solving for p, Initial residual = 0.0106472050723, Final residual = 0.000247545554749, No Iterations 4
time step continuity errors : sum local = 0.00092360765301, global = 9.0609305427e-06, cumulative = 0.177026856655
ExecutionTime = 8.7 s  ClockTime = 8 s

Time = 88

smoothSolver:  Solving for Ux, Initial residual = 0.000322242045959, Final residual = 2.61257419656e-05, No Iterations 4
smoothSolver:  Solving for Uy, Initial residual = 0.00522960700614, Final residual = 0.000457698779439, No Iterations 4
smoothSolver:  Solving for Uz, Initial residual = 0.00277538804984, Final residual = 0.000243793954753, No Iterations 4
GAMG:  Solving for p, Initial residual = 0.0104065308675, Final residual = 0.000235923753307, No Iterations 4
time step continuity errors : sum local = 0.000870155201934, global = 1.35192122934e-05, cumulative = 0.177040375867
ExecutionTime = 8.79 s  ClockTime = 8 s

Time = 89

smoothSolver:  Solving for Ux, Initial residual = 0.000321725200261, Final residual = 2.60967225764e-05, No Iterations 4
smoothSolver:  Solving for Uy, Initial residual = 0.005194325301, Final residual = 0.000454810438477, No Iterations 4
smoothSolver:  Solving for Uz, Initial residual = 0.00276095662888, Final residual = 0.000242598678979, No Iterations 4
GAMG:  Solving for p, Initial residual = 0.0101327366647, Final residual = 0.00021866709603, No Iterations 4
time step continuity errors : sum local = 0.00079727873792, global = 2.13393775497e-05, cumulative = 0.177061715244
ExecutionTime = 8.88 s  ClockTime = 8 s

Time = 90

smoothSolver:  Solving for Ux, Initial residual = 0.000321187185018, Final residual = 2.6053346565e-05, No Iterations 4
smoothSolver:  Solving for Uy, Initial residual = 0.00515931325853, Final residual = 0.000451874167545, No Iterations 4
smoothSolver:  Solving for Uz, Initial residual = 0.00274509500628, Final residual = 0.000241269257769, No Iterations 4
GAMG:  Solving for p, Initial residual = 0.0098690011817, Final residual = 0.000212329397234, No Iterations 4
time step continuity errors : sum local = 0.000765514632828, global = 2.55645172641e-05, cumulative = 0.177087279762
ExecutionTime = 8.98 s  ClockTime = 9 s

Time = 91

smoothSolver:  Solving for Ux, Initial residual = 0.000320779371334, Final residual = 2.60335797719e-05, No Iterations 4
smoothSolver:  Solving for Uy, Initial residual = 0.00512742125484, Final residual = 0.000448847202867, No Iterations 4
smoothSolver:  Solving for Uz, Initial residual = 0.00273074722408, Final residual = 0.000240047456871, No Iterations 4
GAMG:  Solving for p, Initial residual = 0.00988888255772, Final residual = 0.000234496588071, No Iterations 4
time step continuity errors : sum local = 0.000837275355132, global = 1.17074128016e-05, cumulative = 0.177098987174
ExecutionTime = 9.08 s  ClockTime = 9 s

Time = 92

smoothSolver:  Solving for Ux, Initial residual = 0.000320460651865, Final residual = 2.60194536916e-05, No Iterations 4
smoothSolver:  Solving for Uy, Initial residual = 0.00509189286495, Final residual = 0.000446083814013, No Iterations 4
smoothSolver:  Solving for Uz, Initial residual = 0.00271793862749, Final residual = 0.000239010978823, No Iterations 4
GAMG:  Solving for p, Initial residual = 0.00968885064172, Final residual = 0.000223295727745, No Iterations 4
time step continuity errors : sum local = 0.000788818882434, global = 1.48678995997e-05, cumulative = 0.177113855074
ExecutionTime = 9.17 s  ClockTime = 9 s

Time = 93

smoothSolver:  Solving for Ux, Initial residual = 0.00031994341592, Final residual = 2.59586951705e-05, No Iterations 4
smoothSolver:  Solving for Uy, Initial residual = 0.00505710183842, Final residual = 0.000443153078847, No Iterations 4
smoothSolver:  Solving for Uz, Initial residual = 0.00270020294369, Final residual = 0.000237520771598, No Iterations 4
GAMG:  Solving for p, Initial residual = 0.0094583427093, Final residual = 0.000239696911842, No Iterations 4
time step continuity errors : sum local = 0.000837747846348, global = 5.41469619054e-06, cumulative = 0.17711926977
ExecutionTime = 9.26 s  ClockTime = 9 s

Time = 94

smoothSolver:  Solving for Ux, Initial residual = 0.000319641267991, Final residual = 2.59500771028e-05, No Iterations 4
smoothSolver:  Solving for Uy, Initial residual = 0.00502674074694, Final residual = 0.000440308932881, No Iterations 4
smoothSolver:  Solving for Uz, Initial residual = 0.00268727368234, Final residual = 0.000236431118976, No Iterations 4
GAMG:  Solving for p, Initial residual = 0.0094581779471, Final residual = 0.000252437840126, No Iterations 4
time step continuity errors : sum local = 0.000873811232756, global = -6.12323177804e-06, cumulative = 0.177113146538
ExecutionTime = 9.36 s  ClockTime = 9 s

Time = 95

smoothSolver:  Solving for Ux, Initial residual = 0.00031931708083, Final residual = 2.59265802899e-05, No Iterations 4
smoothSolver:  Solving for Uy, Initial residual = 0.00499265938207, Final residual = 0.00043763356315, No Iterations 4
smoothSolver:  Solving for Uz, Initial residual = 0.00267385983068, Final residual = 0.000235336299013, No Iterations 4
GAMG:  Solving for p, Initial residual = 0.00928625484093, Final residual = 0.000245957104587, No Iterations 4
time step continuity errors : sum local = 0.000842611891996, global = -2.17192624268e-06, cumulative = 0.177110974612
ExecutionTime = 9.45 s  ClockTime = 9 s

Time = 96

smoothSolver:  Solving for Ux, Initial residual = 0.000318894461739, Final residual = 2.5866630984e-05, No Iterations 4
smoothSolver:  Solving for Uy, Initial residual = 0.004959319053, Final residual = 0.00043483413161, No Iterations 4
smoothSolver:  Solving for Uz, Initial residual = 0.00265672077586, Final residual = 0.000233886807919, No Iterations 4
GAMG:  Solving for p, Initial residual = 0.00908300499266, Final residual = 0.000232531832856, No Iterations 4
time step continuity errors : sum local = 0.000788324633306, global = 4.17388026341e-06, cumulative = 0.177115148492
ExecutionTime = 9.54 s  ClockTime = 9 s

Time = 97

smoothSolver:  Solving for Ux, Initial residual = 0.000318770801027, Final residual = 2.58633965133e-05, No Iterations 4
smoothSolver:  Solving for Uy, Initial residual = 0.00493066489347, Final residual = 0.000432187543426, No Iterations 4
smoothSolver:  Solving for Uz, Initial residual = 0.00264507910339, Final residual = 0.000232894040046, No Iterations 4
GAMG:  Solving for p, Initial residual = 0.009048006088, Final residual = 0.0002463517635, No Iterations 4
time step continuity errors : sum local = 0.000827020010571, global = -3.32057696228e-06, cumulative = 0.177111827916
ExecutionTime = 9.64 s  ClockTime = 9 s

Time = 98

smoothSolver:  Solving for Ux, Initial residual = 0.00031828568911, Final residual = 2.58059072447e-05, No Iterations 4
smoothSolver:  Solving for Uy, Initial residual = 0.00489645603331, Final residual = 0.000429458898725, No Iterations 4
smoothSolver:  Solving for Uz, Initial residual = 0.00262878000559, Final residual = 0.000231526657479, No Iterations 4
GAMG:  Solving for p, Initial residual = 0.00888683444134, Final residual = 0.000237488686443, No Iterations 4
time step continuity errors : sum local = 0.000789279753385, global = 6.72193940684e-07, cumulative = 0.177112500109
ExecutionTime = 9.73 s  ClockTime = 9 s

Time = 99

smoothSolver:  Solving for Ux, Initial residual = 0.000317722010915, Final residual = 2.57602808156e-05, No Iterations 4
smoothSolver:  Solving for Uy, Initial residual = 0.00486495842087, Final residual = 0.000426842661046, No Iterations 4
smoothSolver:  Solving for Uz, Initial residual = 0.00261441215657, Final residual = 0.000230311473186, No Iterations 4
GAMG:  Solving for p, Initial residual = 0.00870944010646, Final residual = 0.000199617938024, No Iterations 4
time step continuity errors : sum local = 0.000656748803588, global = 1.97281075849e-05, cumulative = 0.177132228217
ExecutionTime = 9.83 s  ClockTime = 9 s

Time = 100

smoothSolver:  Solving for Ux, Initial residual = 0.000317270970417, Final residual = 2.57255375724e-05, No Iterations 4
smoothSolver:  Solving for Uy, Initial residual = 0.00483536378298, Final residual = 0.000424342110965, No Iterations 4
smoothSolver:  Solving for Uz, Initial residual = 0.00260201451803, Final residual = 0.000229264936994, No Iterations 4
GAMG:  Solving for p, Initial residual = 0.00853828336137, Final residual = 0.000194917539472, No Iterations 4
time step continuity errors : sum local = 0.000634893880673, global = 2.30143997045e-05, cumulative = 0.177155242617
ExecutionTime = 9.92 s  ClockTime = 10 s

Time = 101

smoothSolver:  Solving for Ux, Initial residual = 0.000316920782646, Final residual = 2.56550098927e-05, No Iterations 4
smoothSolver:  Solving for Uy, Initial residual = 0.00480589165012, Final residual = 0.000421458365008, No Iterations 4
smoothSolver:  Solving for Uz, Initial residual = 0.00258498262467, Final residual = 0.000227770498174, No Iterations 4
GAMG:  Solving for p, Initial residual = 0.0086243116919, Final residual = 0.000215892921061, No Iterations 4
time step continuity errors : sum local = 0.000696339342689, global = 1.32940372801e-05, cumulative = 0.177168536654
ExecutionTime = 10.05 s  ClockTime = 10 s

Time = 102

smoothSolver:  Solving for Ux, Initial residual = 0.000316193712692, Final residual = 2.55893995009e-05, No Iterations 4
smoothSolver:  Solving for Uy, Initial residual = 0.00477397591127, Final residual = 0.000418943068953, No Iterations 4
smoothSolver:  Solving for Uz, Initial residual = 0.00257219654331, Final residual = 0.000226707794749, No Iterations 4
GAMG:  Solving for p, Initial residual = 0.00840980632694, Final residual = 0.00019038476177, No Iterations 4
time step continuity errors : sum local = 0.000607805176263, global = 2.13266285767e-05, cumulative = 0.177189863283
ExecutionTime = 10.14 s  ClockTime = 10 s

Time = 103

smoothSolver:  Solving for Ux, Initial residual = 0.000315497465583, Final residual = 2.55114900647e-05, No Iterations 4
smoothSolver:  Solving for Uy, Initial residual = 0.00474288498084, Final residual = 0.000416201455735, No Iterations 4
smoothSolver:  Solving for Uz, Initial residual = 0.00255741020211, Final residual = 0.000225451536418, No Iterations 4
GAMG:  Solving for p, Initial residual = 0.00833425400298, Final residual = 0.000189295798566, No Iterations 4
time step continuity errors : sum local = 0.000598511955211, global = 1.99530124096e-05, cumulative = 0.177209816295
ExecutionTime = 10.25 s  ClockTime = 10 s

Time = 104

smoothSolver:  Solving for Ux, Initial residual = 0.000314286430044, Final residual = 2.54068006564e-05, No Iterations 4
smoothSolver:  Solving for Uy, Initial residual = 0.00471139146448, Final residual = 0.00041353909285, No Iterations 4
smoothSolver:  Solving for Uz, Initial residual = 0.00254165398714, Final residual = 0.000224122530118, No Iterations 4
GAMG:  Solving for p, Initial residual = 0.00822187924946, Final residual = 0.00018498296361, No Iterations 4
time step continuity errors : sum local = 0.000579090071403, global = 2.11333550487e-05, cumulative = 0.17723094965
ExecutionTime = 10.34 s  ClockTime = 10 s

Time = 105

smoothSolver:  Solving for Ux, Initial residual = 0.000313526191441, Final residual = 2.53304848123e-05, No Iterations 4
smoothSolver:  Solving for Uy, Initial residual = 0.00468356205579, Final residual = 0.000411055537717, No Iterations 4
smoothSolver:  Solving for Uz, Initial residual = 0.00252975743108, Final residual = 0.00022311648637, No Iterations 4
GAMG:  Solving for p, Initial residual = 0.00810771220761, Final residual = 0.000185464077374, No Iterations 4
time step continuity errors : sum local = 0.000574972758614, global = 2.14413062545e-05, cumulative = 0.177252390956
ExecutionTime = 10.45 s  ClockTime = 10 s

Time = 106

smoothSolver:  Solving for Ux, Initial residual = 0.000313135641454, Final residual = 2.52165511398e-05, No Iterations 4
smoothSolver:  Solving for Uy, Initial residual = 0.00465400172919, Final residual = 0.000408171425483, No Iterations 4
smoothSolver:  Solving for Uz, Initial residual = 0.00251404459344, Final residual = 0.000221765804755, No Iterations 4
GAMG:  Solving for p, Initial residual = 0.00807627730587, Final residual = 0.00018436838256, No Iterations 4
time step continuity errors : sum local = 0.000566070652539, global = 1.98533879639e-05, cumulative = 0.177272244344
ExecutionTime = 10.54 s  ClockTime = 10 s

Time = 107

smoothSolver:  Solving for Ux, Initial residual = 0.000311573052522, Final residual = 2.50868368043e-05, No Iterations 4
smoothSolver:  Solving for Uy, Initial residual = 0.00462384280717, Final residual = 0.000405524231584, No Iterations 4
smoothSolver:  Solving for Uz, Initial residual = 0.00249990681257, Final residual = 0.000220554854595, No Iterations 4
GAMG:  Solving for p, Initial residual = 0.00796602152929, Final residual = 0.000182312803568, No Iterations 4
time step continuity errors : sum local = 0.000554332408062, global = 1.9221356595e-05, cumulative = 0.177291465701
ExecutionTime = 10.63 s  ClockTime = 10 s

Time = 108

smoothSolver:  Solving for Ux, Initial residual = 0.000312518337355, Final residual = 2.49459482827e-05, No Iterations 4
smoothSolver:  Solving for Uy, Initial residual = 0.00459226482721, Final residual = 0.000402826879808, No Iterations 4
smoothSolver:  Solving for Uz, Initial residual = 0.00248537775258, Final residual = 0.000219306171291, No Iterations 4
GAMG:  Solving for p, Initial residual = 0.00783142125909, Final residual = 0.000159547254167, No Iterations 4
time step continuity errors : sum local = 0.000480486409494, global = 1.42421629961e-05, cumulative = 0.177305707864
ExecutionTime = 10.73 s  ClockTime = 10 s

Time = 109

smoothSolver:  Solving for Ux, Initial residual = 0.000309603211479, Final residual = 2.46992495461e-05, No Iterations 4
smoothSolver:  Solving for Uy, Initial residual = 0.00456277822513, Final residual = 0.000400139853591, No Iterations 4
smoothSolver:  Solving for Uz, Initial residual = 0.00247285393031, Final residual = 0.000218232423476, No Iterations 4
GAMG:  Solving for p, Initial residual = 0.0077806224936, Final residual = 0.000182466493964, No Iterations 4
time step continuity errors : sum local = 0.000544323295862, global = 1.73099746368e-05, cumulative = 0.177323017839
ExecutionTime = 10.82 s  ClockTime = 10 s

Time = 110

smoothSolver:  Solving for Ux, Initial residual = 0.000303095534872, Final residual = 2.43729522014e-05, No Iterations 4
smoothSolver:  Solving for Uy, Initial residual = 0.00453264190249, Final residual = 0.000397573671917, No Iterations 4
smoothSolver:  Solving for Uz, Initial residual = 0.00245861515504, Final residual = 0.000217022723454, No Iterations 4
GAMG:  Solving for p, Initial residual = 0.00766685508815, Final residual = 0.000155117630553, No Iterations 4
time step continuity errors : sum local = 0.000458304490383, global = 1.24502249664e-05, cumulative = 0.177335468063
ExecutionTime = 10.93 s  ClockTime = 11 s

Time = 111

smoothSolver:  Solving for Ux, Initial residual = 0.000298095127969, Final residual = 2.41253224864e-05, No Iterations 4
smoothSolver:  Solving for Uy, Initial residual = 0.00450409678231, Final residual = 0.000395128834516, No Iterations 4
smoothSolver:  Solving for Uz, Initial residual = 0.00244674593784, Final residual = 0.000216028938702, No Iterations 4
GAMG:  Solving for p, Initial residual = 0.00751266457816, Final residual = 0.000154746931457, No Iterations 4
time step continuity errors : sum local = 0.000452979764197, global = 1.06563845682e-05, cumulative = 0.177346124448
ExecutionTime = 11.03 s  ClockTime = 11 s

Time = 112

smoothSolver:  Solving for Ux, Initial residual = 0.000294488365822, Final residual = 2.38822454545e-05, No Iterations 4
smoothSolver:  Solving for Uy, Initial residual = 0.00447169664526, Final residual = 0.000392213188742, No Iterations 4
smoothSolver:  Solving for Uz, Initial residual = 0.00243165070745, Final residual = 0.000214670856945, No Iterations 4
GAMG:  Solving for p, Initial residual = 0.00749593094362, Final residual = 0.000186883204573, No Iterations 4
time step continuity errors : sum local = 0.000541828588675, global = 1.3340076837e-05, cumulative = 0.177359464525
ExecutionTime = 11.13 s  ClockTime = 11 s

Time = 113

smoothSolver:  Solving for Ux, Initial residual = 0.000291613784347, Final residual = 2.36984819409e-05, No Iterations 4
smoothSolver:  Solving for Uy, Initial residual = 0.0044453268319, Final residual = 0.000389901932452, No Iterations 4
smoothSolver:  Solving for Uz, Initial residual = 0.0024181845587, Final residual = 0.000213591293674, No Iterations 4
GAMG:  Solving for p, Initial residual = 0.00731999042174, Final residual = 0.000145950755341, No Iterations 4
time step continuity errors : sum local = 0.000419148008656, global = 9.36579680549e-06, cumulative = 0.177368830322
ExecutionTime = 11.23 s  ClockTime = 11 s

Time = 114

smoothSolver:  Solving for Ux, Initial residual = 0.000289165933859, Final residual = 2.35255670785e-05, No Iterations 4
smoothSolver:  Solving for Uy, Initial residual = 0.00441265140156, Final residual = 0.000387209821086, No Iterations 4
smoothSolver:  Solving for Uz, Initial residual = 0.00240525928723, Final residual = 0.000212519077058, No Iterations 4
GAMG:  Solving for p, Initial residual = 0.00724392002692, Final residual = 0.000141309230095, No Iterations 4
time step continuity errors : sum local = 0.000402140822593, global = 7.16228865235e-06, cumulative = 0.17737599261
ExecutionTime = 11.32 s  ClockTime = 11 s

Time = 115

smoothSolver:  Solving for Ux, Initial residual = 0.00028700514464, Final residual = 2.33607062674e-05, No Iterations 4
smoothSolver:  Solving for Uy, Initial residual = 0.00438428911981, Final residual = 0.000384680320124, No Iterations 4
smoothSolver:  Solving for Uz, Initial residual = 0.0023917286413, Final residual = 0.000211317178126, No Iterations 4
GAMG:  Solving for p, Initial residual = 0.00714614210702, Final residual = 0.000138847175888, No Iterations 4
time step continuity errors : sum local = 0.000391623683694, global = 6.30749167222e-06, cumulative = 0.177382300102
ExecutionTime = 11.42 s  ClockTime = 11 s

Time = 116

smoothSolver:  Solving for Ux, Initial residual = 0.000285338317333, Final residual = 2.32389787578e-05, No Iterations 4
smoothSolver:  Solving for Uy, Initial residual = 0.00435754129734, Final residual = 0.000382268359738, No Iterations 4
smoothSolver:  Solving for Uz, Initial residual = 0.00237996966687, Final residual = 0.000210341769383, No Iterations 4
GAMG:  Solving for p, Initial residual = 0.00706632451098, Final residual = 0.00014040784911, No Iterations 4
time step continuity errors : sum local = 0.000392540025982, global = 6.78737284574e-06, cumulative = 0.177389087475
ExecutionTime = 11.5 s  ClockTime = 11 s

Time = 117

smoothSolver:  Solving for Ux, Initial residual = 0.00028385607395, Final residual = 2.31185416926e-05, No Iterations 4
smoothSolver:  Solving for Uy, Initial residual = 0.00432934741466, Final residual = 0.00037975701216, No Iterations 4
smoothSolver:  Solving for Uz, Initial residual = 0.00236701581631, Final residual = 0.000209249856424, No Iterations 4
GAMG:  Solving for p, Initial residual = 0.00701650951014, Final residual = 0.000139577006849, No Iterations 4
time step continuity errors : sum local = 0.000386711602373, global = 6.74595656402e-06, cumulative = 0.177395833431
ExecutionTime = 11.61 s  ClockTime = 11 s

Time = 118

smoothSolver:  Solving for Ux, Initial residual = 0.000282283611812, Final residual = 2.29888302686e-05, No Iterations 4
smoothSolver:  Solving for Uy, Initial residual = 0.00429976606222, Final residual = 0.000377258876574, No Iterations 4
smoothSolver:  Solving for Uz, Initial residual = 0.00235231260067, Final residual = 0.000207974822068, No Iterations 4
GAMG:  Solving for p, Initial residual = 0.00700279769094, Final residual = 0.000176321909823, No Iterations 4
time step continuity errors : sum local = 0.000484266771665, global = 9.68427822698e-06, cumulative = 0.17740551771
ExecutionTime = 11.71 s  ClockTime = 11 s

Time = 119

smoothSolver:  Solving for Ux, Initial residual = 0.000280958059529, Final residual = 2.2900186973e-05, No Iterations 4
smoothSolver:  Solving for Uy, Initial residual = 0.00427531934797, Final residual = 0.000375014858945, No Iterations 4
smoothSolver:  Solving for Uz, Initial residual = 0.00234108383245, Final residual = 0.000207055337041, No Iterations 4
GAMG:  Solving for p, Initial residual = 0.00696233059048, Final residual = 0.000165760777563, No Iterations 4
time step continuity errors : sum local = 0.000451157752948, global = 8.60744329349e-06, cumulative = 0.177414125153
ExecutionTime = 11.8 s  ClockTime = 11 s

Time = 120

smoothSolver:  Solving for Ux, Initial residual = 0.000279553473792, Final residual = 2.27764251102e-05, No Iterations 4
smoothSolver:  Solving for Uy, Initial residual = 0.00424379496011, Final residual = 0.000372404373269, No Iterations 4
smoothSolver:  Solving for Uz, Initial residual = 0.00232713645316, Final residual = 0.000205867291711, No Iterations 4
GAMG:  Solving for p, Initial residual = 0.00687580151087, Final residual = 0.000130787315354, No Iterations 4
time step continuity errors : sum local = 0.000352890396236, global = 7.4970795296e-06, cumulative = 0.177421622232
ExecutionTime = 11.89 s  ClockTime = 11 s

Time = 121

smoothSolver:  Solving for Ux, Initial residual = 0.000278270873699, Final residual = 2.26852313447e-05, No Iterations 4
smoothSolver:  Solving for Uy, Initial residual = 0.00421550103781, Final residual = 0.000370095080444, No Iterations 4
smoothSolver:  Solving for Uz, Initial residual = 0.00231676807268, Final residual = 0.000204976360993, No Iterations 4
GAMG:  Solving for p, Initial residual = 0.00679589562285, Final residual = 0.000130594970904, No Iterations 4
time step continuity errors : sum local = 0.00034943177837, global = 7.19383735872e-06, cumulative = 0.17742881607
ExecutionTime = 12 s  ClockTime = 12 s

Time = 122

smoothSolver:  Solving for Ux, Initial residual = 0.000277253768141, Final residual = 2.25786814144e-05, No Iterations 4
smoothSolver:  Solving for Uy, Initial residual = 0.00418862547565, Final residual = 0.000367719040444, No Iterations 4
smoothSolver:  Solving for Uz, Initial residual = 0.00230445961048, Final residual = 0.000203864604267, No Iterations 4
GAMG:  Solving for p, Initial residual = 0.00672093548541, Final residual = 0.000129495092469, No Iterations 4
time step continuity errors : sum local = 0.00034356719954, global = 6.15185226128e-06, cumulative = 0.177434967922
ExecutionTime = 12.09 s  ClockTime = 12 s

Time = 123

smoothSolver:  Solving for Ux, Initial residual = 0.000276151675467, Final residual = 2.24816340326e-05, No Iterations 4
smoothSolver:  Solving for Uy, Initial residual = 0.00416204654184, Final residual = 0.000365396302906, No Iterations 4
smoothSolver:  Solving for Uz, Initial residual = 0.00229055980272, Final residual = 0.000202716060375, No Iterations 4
GAMG:  Solving for p, Initial residual = 0.00661859231098, Final residual = 0.000127791493881, No Iterations 4
time step continuity errors : sum local = 0.000336191369776, global = 5.59428542928e-06, cumulative = 0.177440562208
ExecutionTime = 12.19 s  ClockTime = 12 s

Time = 124

[...]
smoothSolver:  Solving for Uz, Initial residual = 3.69217899133e-05, Final residual = 5.89361740348e-06, No Iterations 3
GAMG:  Solving for p, Initial residual = 3.51893883062e-05, Final residual = 1.35381780118e-06, No Iterations 8
time step continuity errors : sum local = 7.9911789843e-07, global = -3.90271546699e-09, cumulative = 0.177510237706
ExecutionTime = 89.32 s  ClockTime = 89 s

Time = 877

smoothSolver:  Solving for Ux, Initial residual = 5.68312433231e-05, Final residual = 8.91928706128e-06, No Iterations 3
smoothSolver:  Solving for Uy, Initial residual = 0.00010839019717, Final residual = 9.63718350537e-06, No Iterations 4
smoothSolver:  Solving for Uz, Initial residual = 3.68352702723e-05, Final residual = 5.87975572976e-06, No Iterations 3
GAMG:  Solving for p, Initial residual = 3.50467804555e-05, Final residual = 1.26304360279e-06, No Iterations 8
time step continuity errors : sum local = 7.45488315666e-07, global = -3.66543865114e-09, cumulative = 0.177510234041
ExecutionTime = 89.43 s  ClockTime = 89 s

Time = 878

smoothSolver:  Solving for Ux, Initial residual = 5.68025182646e-05, Final residual = 8.91358715011e-06, No Iterations 3
smoothSolver:  Solving for Uy, Initial residual = 0.000108081438826, Final residual = 9.61025545841e-06, No Iterations 4
smoothSolver:  Solving for Uz, Initial residual = 3.67491622721e-05, Final residual = 5.86596043841e-06, No Iterations 3
GAMG:  Solving for p, Initial residual = 3.48949287645e-05, Final residual = 1.26289375201e-06, No Iterations 8
time step continuity errors : sum local = 7.45352176004e-07, global = -3.66649773509e-09, cumulative = 0.177510230374
ExecutionTime = 89.54 s  ClockTime = 89 s

Time = 879

smoothSolver:  Solving for Ux, Initial residual = 5.67735727353e-05, Final residual = 8.90792518552e-06, No Iterations 3
smoothSolver:  Solving for Uy, Initial residual = 0.000107773771285, Final residual = 9.58344016609e-06, No Iterations 4
smoothSolver:  Solving for Uz, Initial residual = 3.66634838945e-05, Final residual = 5.85223259304e-06, No Iterations 3
GAMG:  Solving for p, Initial residual = 3.4745151205e-05, Final residual = 1.2624671126e-06, No Iterations 8
time step continuity errors : sum local = 7.45053034907e-07, global = -3.6707558046e-09, cumulative = 0.177510226703
ExecutionTime = 89.64 s  ClockTime = 89 s

Time = 880

smoothSolver:  Solving for Ux, Initial residual = 5.67446134601e-05, Final residual = 8.90223533483e-06, No Iterations 3
smoothSolver:  Solving for Uy, Initial residual = 0.000107466815752, Final residual = 9.55673101233e-06, No Iterations 4
smoothSolver:  Solving for Uz, Initial residual = 3.65782513611e-05, Final residual = 5.83857316382e-06, No Iterations 3
GAMG:  Solving for p, Initial residual = 3.45964416632e-05, Final residual = 1.26160649737e-06, No Iterations 8
time step continuity errors : sum local = 7.44498160468e-07, global = -3.68875899116e-09, cumulative = 0.177510223015
ExecutionTime = 89.73 s  ClockTime = 89 s

Time = 881

smoothSolver:  Solving for Ux, Initial residual = 5.67156979821e-05, Final residual = 8.89654299754e-06, No Iterations 3
smoothSolver:  Solving for Uy, Initial residual = 0.00010716101269, Final residual = 9.53011035448e-06, No Iterations 4
smoothSolver:  Solving for Uz, Initial residual = 3.64934584702e-05, Final residual = 5.82498104868e-06, No Iterations 3
GAMG:  Solving for p, Initial residual = 3.44479942747e-05, Final residual = 1.26026832317e-06, No Iterations 8
time step continuity errors : sum local = 7.43661909941e-07, global = -3.72132787755e-09, cumulative = 0.177510219293
ExecutionTime = 89.84 s  ClockTime = 89 s

Time = 882

smoothSolver:  Solving for Ux, Initial residual = 5.66865665359e-05, Final residual = 8.890864814e-06, No Iterations 3
smoothSolver:  Solving for Uy, Initial residual = 0.000106856929314, Final residual = 9.50356818953e-06, No Iterations 4
smoothSolver:  Solving for Uz, Initial residual = 3.64090619274e-05, Final residual = 5.81146008895e-06, No Iterations 3
GAMG:  Solving for p, Initial residual = 3.43010164839e-05, Final residual = 1.25853515847e-06, No Iterations 8
time step continuity errors : sum local = 7.4259303865e-07, global = -3.76400530759e-09, cumulative = 0.177510215529
ExecutionTime = 89.93 s  ClockTime = 90 s

Time = 883

smoothSolver:  Solving for Ux, Initial residual = 5.66574216195e-05, Final residual = 8.8851654694e-06, No Iterations 3
smoothSolver:  Solving for Uy, Initial residual = 0.000106554082092, Final residual = 9.47710310033e-06, No Iterations 4
smoothSolver:  Solving for Uz, Initial residual = 3.632507106e-05, Final residual = 5.79800341689e-06, No Iterations 3
GAMG:  Solving for p, Initial residual = 3.41535286986e-05, Final residual = 1.32926679869e-06, No Iterations 8
time step continuity errors : sum local = 7.8427954213e-07, global = -1.38487235698e-09, cumulative = 0.177510214145
ExecutionTime = 90.03 s  ClockTime = 90 s

Time = 884

smoothSolver:  Solving for Ux, Initial residual = 5.66281177533e-05, Final residual = 8.87945180159e-06, No Iterations 3
smoothSolver:  Solving for Uy, Initial residual = 0.000106252061114, Final residual = 9.45077340282e-06, No Iterations 4
smoothSolver:  Solving for Uz, Initial residual = 3.62415068041e-05, Final residual = 5.78461330591e-06, No Iterations 3
GAMG:  Solving for p, Initial residual = 3.40132397748e-05, Final residual = 1.35818353476e-06, No Iterations 8
time step continuity errors : sum local = 8.01292203856e-07, global = -3.79245863211e-09, cumulative = 0.177510210352
ExecutionTime = 90.13 s  ClockTime = 90 s

Time = 885

smoothSolver:  Solving for Ux, Initial residual = 5.65988708624e-05, Final residual = 8.87373889834e-06, No Iterations 3
smoothSolver:  Solving for Uy, Initial residual = 0.000105950326492, Final residual = 9.42449647234e-06, No Iterations 4
smoothSolver:  Solving for Uz, Initial residual = 3.61583270088e-05, Final residual = 5.77128104536e-06, No Iterations 3
GAMG:  Solving for p, Initial residual = 3.38711724153e-05, Final residual = 1.26412594748e-06, No Iterations 8
time step continuity errors : sum local = 7.45754890197e-07, global = -3.76341355405e-09, cumulative = 0.177510206589
ExecutionTime = 90.24 s  ClockTime = 90 s

Time = 886

smoothSolver:  Solving for Ux, Initial residual = 5.65694337067e-05, Final residual = 8.86797437526e-06, No Iterations 3
smoothSolver:  Solving for Uy, Initial residual = 0.000105650102897, Final residual = 9.39834492174e-06, No Iterations 4
smoothSolver:  Solving for Uz, Initial residual = 3.60755505524e-05, Final residual = 5.75802185502e-06, No Iterations 3
GAMG:  Solving for p, Initial residual = 3.37189218964e-05, Final residual = 1.33203933175e-06, No Iterations 8
time step continuity errors : sum local = 7.85771969677e-07, global = -1.44827176861e-09, cumulative = 0.17751020514
ExecutionTime = 90.34 s  ClockTime = 90 s

Time = 887

smoothSolver:  Solving for Ux, Initial residual = 5.65400682338e-05, Final residual = 8.86220720602e-06, No Iterations 3
smoothSolver:  Solving for Uy, Initial residual = 0.000105351144182, Final residual = 9.37232763331e-06, No Iterations 4
smoothSolver:  Solving for Uz, Initial residual = 3.59931949274e-05, Final residual = 5.74483166527e-06, No Iterations 3
GAMG:  Solving for p, Initial residual = 3.35774764108e-05, Final residual = 1.27031600426e-06, No Iterations 8
time step continuity errors : sum local = 7.49316933663e-07, global = -3.62008062332e-09, cumulative = 0.17751020152
ExecutionTime = 90.44 s  ClockTime = 90 s

Time = 888

smoothSolver:  Solving for Ux, Initial residual = 5.65104655741e-05, Final residual = 8.85641924206e-06, No Iterations 3
smoothSolver:  Solving for Uy, Initial residual = 0.000105052800092, Final residual = 9.34635690809e-06, No Iterations 4
smoothSolver:  Solving for Uz, Initial residual = 3.59111941226e-05, Final residual = 5.73169489723e-06, No Iterations 3
GAMG:  Solving for p, Initial residual = 3.34283914281e-05, Final residual = 1.33496108664e-06, No Iterations 8
time step continuity errors : sum local = 7.87401764617e-07, global = -1.40243622588e-09, cumulative = 0.177510200118
ExecutionTime = 90.52 s  ClockTime = 90 s

Time = 889

smoothSolver:  Solving for Ux, Initial residual = 5.64810012624e-05, Final residual = 8.8506291629e-06, No Iterations 3
smoothSolver:  Solving for Uy, Initial residual = 0.00010475562625, Final residual = 9.32051108672e-06, No Iterations 4
smoothSolver:  Solving for Uz, Initial residual = 3.58296463233e-05, Final residual = 5.71862775863e-06, No Iterations 3
GAMG:  Solving for p, Initial residual = 3.32888428562e-05, Final residual = 1.27303915179e-06, No Iterations 8
time step continuity errors : sum local = 7.50834327539e-07, global = -3.59308435795e-09, cumulative = 0.177510196525
ExecutionTime = 90.61 s  ClockTime = 90 s

Time = 890

smoothSolver:  Solving for Ux, Initial residual = 5.645147305e-05, Final residual = 8.84480040746e-06, No Iterations 3
smoothSolver:  Solving for Uy, Initial residual = 0.000104458756675, Final residual = 9.29472911485e-06, No Iterations 4
smoothSolver:  Solving for Uz, Initial residual = 3.57484570535e-05, Final residual = 5.70562290681e-06, No Iterations 3
GAMG:  Solving for p, Initial residual = 3.31393237897e-05, Final residual = 1.335727542e-06, No Iterations 8
time step continuity errors : sum local = 7.87761166464e-07, global = -1.43233774896e-09, cumulative = 0.177510195092
ExecutionTime = 90.71 s  ClockTime = 90 s

Time = 891

smoothSolver:  Solving for Ux, Initial residual = 5.64217744714e-05, Final residual = 8.83897377762e-06, No Iterations 3
smoothSolver:  Solving for Uy, Initial residual = 0.000104163852508, Final residual = 9.26909589197e-06, No Iterations 4
smoothSolver:  Solving for Uz, Initial residual = 3.56676604889e-05, Final residual = 5.69268870969e-06, No Iterations 3
GAMG:  Solving for p, Initial residual = 3.30043416401e-05, Final residual = 1.26965317802e-06, No Iterations 8
time step continuity errors : sum local = 7.48749836504e-07, global = -3.68491118485e-09, cumulative = 0.177510191408
ExecutionTime = 90.8 s  ClockTime = 90 s

Time = 892

smoothSolver:  Solving for Ux, Initial residual = 5.63921636885e-05, Final residual = 8.83310889887e-06, No Iterations 3
smoothSolver:  Solving for Uy, Initial residual = 0.000103869213214, Final residual = 9.24349174011e-06, No Iterations 4
smoothSolver:  Solving for Uz, Initial residual = 3.55872002202e-05, Final residual = 5.67981372581e-06, No Iterations 3
GAMG:  Solving for p, Initial residual = 3.28598536155e-05, Final residual = 1.33493707371e-06, No Iterations 8
time step continuity errors : sum local = 7.87203731961e-07, global = -1.50144360544e-09, cumulative = 0.177510189906
ExecutionTime = 90.9 s  ClockTime = 90 s

Time = 893

smoothSolver:  Solving for Ux, Initial residual = 5.63622907954e-05, Final residual = 8.82723764069e-06, No Iterations 3
smoothSolver:  Solving for Uy, Initial residual = 0.000103576071773, Final residual = 9.21802906123e-06, No Iterations 4
smoothSolver:  Solving for Uz, Initial residual = 3.55071791095e-05, Final residual = 5.66701251111e-06, No Iterations 3
GAMG:  Solving for p, Initial residual = 3.27259003669e-05, Final residual = 1.33859809135e-06, No Iterations 8
time step continuity errors : sum local = 7.89317802571e-07, global = -1.3738541461e-09, cumulative = 0.177510188532
ExecutionTime = 91 s  ClockTime = 91 s

Time = 894

smoothSolver:  Solving for Ux, Initial residual = 5.63325033154e-05, Final residual = 8.82136722434e-06, No Iterations 3
smoothSolver:  Solving for Uy, Initial residual = 0.00010328377943, Final residual = 9.19259634674e-06, No Iterations 4
smoothSolver:  Solving for Uz, Initial residual = 3.54275183885e-05, Final residual = 5.65427113597e-06, No Iterations 3
GAMG:  Solving for p, Initial residual = 3.25891241498e-05, Final residual = 1.27308720461e-06, No Iterations 8
time step continuity errors : sum local = 7.50646162102e-07, global = -3.6501802966e-09, cumulative = 0.177510184882
ExecutionTime = 91.13 s  ClockTime = 91 s

Time = 895

smoothSolver:  Solving for Ux, Initial residual = 5.6302748888e-05, Final residual = 8.81557122559e-06, No Iterations 3
smoothSolver:  Solving for Uy, Initial residual = 0.000102992454364, Final residual = 9.16722922413e-06, No Iterations 4
smoothSolver:  Solving for Uz, Initial residual = 3.53481780576e-05, Final residual = 5.64158361762e-06, No Iterations 3
GAMG:  Solving for p, Initial residual = 3.24437513082e-05, Final residual = 1.33773726971e-06, No Iterations 8
time step continuity errors : sum local = 7.88720520712e-07, global = -1.49333068706e-09, cumulative = 0.177510183389
ExecutionTime = 91.28 s  ClockTime = 91 s

Time = 896

smoothSolver:  Solving for Ux, Initial residual = 5.62731409316e-05, Final residual = 8.80993540439e-06, No Iterations 3
smoothSolver:  Solving for Uy, Initial residual = 0.000102702890701, Final residual = 9.14205669164e-06, No Iterations 4
smoothSolver:  Solving for Uz, Initial residual = 3.52692618999e-05, Final residual = 5.62896665566e-06, No Iterations 3
GAMG:  Solving for p, Initial residual = 3.23115118563e-05, Final residual = 1.33912822827e-06, No Iterations 8
time step continuity errors : sum local = 7.8949676099e-07, global = -1.42709024428e-09, cumulative = 0.177510181962
ExecutionTime = 91.36 s  ClockTime = 91 s

Time = 897

smoothSolver:  Solving for Ux, Initial residual = 5.62438104202e-05, Final residual = 8.8042812241e-06, No Iterations 3
smoothSolver:  Solving for Uy, Initial residual = 0.00010241358854, Final residual = 9.11696413427e-06, No Iterations 4
smoothSolver:  Solving for Uz, Initial residual = 3.51907068329e-05, Final residual = 5.61640678222e-06, No Iterations 3
GAMG:  Solving for p, Initial residual = 3.2176727594e-05, Final residual = 1.34210113643e-06, No Iterations 8
time step continuity errors : sum local = 7.91205675348e-07, global = -1.35527886301e-09, cumulative = 0.177510180606
ExecutionTime = 91.46 s  ClockTime = 91 s

Time = 898

smoothSolver:  Solving for Ux, Initial residual = 5.62144231799e-05, Final residual = 8.79864412277e-06, No Iterations 3
smoothSolver:  Solving for Uy, Initial residual = 0.00010212498264, Final residual = 9.09195674836e-06, No Iterations 4
smoothSolver:  Solving for Uz, Initial residual = 3.51125100248e-05, Final residual = 5.60390316643e-06, No Iterations 3
GAMG:  Solving for p, Initial residual = 3.2040122892e-05, Final residual = 1.34415788317e-06, No Iterations 8
time step continuity errors : sum local = 7.92374503123e-07, global = -1.32573489447e-09, cumulative = 0.177510179281
ExecutionTime = 91.57 s  ClockTime = 91 s

Time = 899

smoothSolver:  Solving for Ux, Initial residual = 5.61851657708e-05, Final residual = 8.79298728469e-06, No Iterations 3
smoothSolver:  Solving for Uy, Initial residual = 0.00010183751463, Final residual = 9.06702195306e-06, No Iterations 4
smoothSolver:  Solving for Uz, Initial residual = 3.50346990858e-05, Final residual = 5.5914600864e-06, No Iterations 3
GAMG:  Solving for p, Initial residual = 3.19046134585e-05, Final residual = 1.34487829175e-06, No Iterations 8
time step continuity errors : sum local = 7.92755724635e-07, global = -1.33397227564e-09, cumulative = 0.177510177947
ExecutionTime = 91.65 s  ClockTime = 91 s

Time = 900

smoothSolver:  Solving for Ux, Initial residual = 5.61558400597e-05, Final residual = 8.78735796125e-06, No Iterations 3
smoothSolver:  Solving for Uy, Initial residual = 0.000101551127629, Final residual = 9.0421670772e-06, No Iterations 4
smoothSolver:  Solving for Uz, Initial residual = 3.49572673041e-05, Final residual = 5.57907032123e-06, No Iterations 3
GAMG:  Solving for p, Initial residual = 3.17691239561e-05, Final residual = 1.34518293319e-06, No Iterations 8
time step continuity errors : sum local = 7.92892130024e-07, global = -1.33708643951e-09, cumulative = 0.17751017661
ExecutionTime = 91.77 s  ClockTime = 91 s

    writing object shearStress
Time = 901

smoothSolver:  Solving for Ux, Initial residual = 5.61266537863e-05, Final residual = 8.78170821838e-06, No Iterations 3
smoothSolver:  Solving for Uy, Initial residual = 0.000101266073075, Final residual = 9.01743311757e-06, No Iterations 4
smoothSolver:  Solving for Uz, Initial residual = 3.48801771116e-05, Final residual = 5.56673904861e-06, No Iterations 3
GAMG:  Solving for p, Initial residual = 3.16345166595e-05, Final residual = 1.34434686758e-06, No Iterations 8
time step continuity errors : sum local = 7.92356543144e-07, global = -1.37215329953e-09, cumulative = 0.177510175237
ExecutionTime = 91.91 s  ClockTime = 92 s

Time = 902

smoothSolver:  Solving for Ux, Initial residual = 5.60975109267e-05, Final residual = 8.77605687974e-06, No Iterations 3
smoothSolver:  Solving for Uy, Initial residual = 0.000100981856002, Final residual = 8.99276936825e-06, No Iterations 4
smoothSolver:  Solving for Uz, Initial residual = 3.48034513437e-05, Final residual = 5.55446048512e-06, No Iterations 3
GAMG:  Solving for p, Initial residual = 3.15000681323e-05, Final residual = 1.34348627014e-06, No Iterations 8
time step continuity errors : sum local = 7.91806932066e-07, global = -1.40577136944e-09, cumulative = 0.177510173832
ExecutionTime = 92.01 s  ClockTime = 92 s

Time = 903

smoothSolver:  Solving for Ux, Initial residual = 5.60683041699e-05, Final residual = 8.77042013124e-06, No Iterations 3
smoothSolver:  Solving for Uy, Initial residual = 0.000100698513136, Final residual = 8.9682037851e-06, No Iterations 4
smoothSolver:  Solving for Uz, Initial residual = 3.47270646547e-05, Final residual = 5.54223594152e-06, No Iterations 3
GAMG:  Solving for p, Initial residual = 3.13668592191e-05, Final residual = 1.34279245689e-06, No Iterations 8
time step continuity errors : sum local = 7.91356040122e-07, global = -1.4333224076e-09, cumulative = 0.177510172398
ExecutionTime = 92.1 s  ClockTime = 92 s

Time = 904

smoothSolver:  Solving for Ux, Initial residual = 5.60391681666e-05, Final residual = 8.76478688071e-06, No Iterations 3
smoothSolver:  Solving for Uy, Initial residual = 0.000100415910312, Final residual = 8.94372802833e-06, No Iterations 4
smoothSolver:  Solving for Uz, Initial residual = 3.46510103107e-05, Final residual = 5.53006245126e-06, No Iterations 3
GAMG:  Solving for p, Initial residual = 3.1234576682e-05, Final residual = 1.34233526552e-06, No Iterations 8
time step continuity errors : sum local = 7.91044990657e-07, global = -1.45391833048e-09, cumulative = 0.177510170944
ExecutionTime = 92.19 s  ClockTime = 92 s

Time = 905

smoothSolver:  Solving for Ux, Initial residual = 5.60100951969e-05, Final residual = 8.75915000726e-06, No Iterations 3
smoothSolver:  Solving for Uy, Initial residual = 0.000100134045621, Final residual = 8.91933584148e-06, No Iterations 4
smoothSolver:  Solving for Uz, Initial residual = 3.45752869234e-05, Final residual = 5.51793893583e-06, No Iterations 3
GAMG:  Solving for p, Initial residual = 3.11032901918e-05, Final residual = 1.34206658306e-06, No Iterations 8
time step continuity errors : sum local = 7.90845373984e-07, global = -1.46888828897e-09, cumulative = 0.177510169475
ExecutionTime = 92.3 s  ClockTime = 92 s

Time = 906

smoothSolver:  Solving for Ux, Initial residual = 5.59809804872e-05, Final residual = 8.75353382039e-06, No Iterations 3
smoothSolver:  Solving for Uy, Initial residual = 9.98534091832e-05, Final residual = 8.8950491894e-06, No Iterations 4
smoothSolver:  Solving for Uz, Initial residual = 3.44998791215e-05, Final residual = 5.50586279346e-06, No Iterations 3
GAMG:  Solving for p, Initial residual = 3.09722308495e-05, Final residual = 1.34189060476e-06, No Iterations 8
time step continuity errors : sum local = 7.90700721358e-07, global = -1.48046715484e-09, cumulative = 0.177510167995
ExecutionTime = 92.39 s  ClockTime = 92 s


SIMPLE solution converged in 906 iterations

End

Finalising parallel run
