/*---------------------------------------------------------------------------*\
  =========                 |
  \\      /  F ield         | OpenFOAM: The Open Source CFD Toolbox
   \\    /   O peration     | Website:  https://openfoam.org
    \\  /    A nd           | Version:  9
     \\/     M anipulation  |
\*---------------------------------------------------------------------------*/
Build  : 9-b456138dc4bc
Exec   : simpleFoam -parallel
Date   : Apr 12 2022
Time   : 17:44:36
Host   : "KORIN-LAB"
PID    : 11064
I/O    : uncollated
Case   : /home/colin/OpenFOAM/colin-9/run/wsl/wedge_needle/35_temp/45_needle_layer
nProcs : 6
Slaves : 
5
(
"KORIN-LAB.11065"
"KORIN-LAB.11066"
"KORIN-LAB.11067"
"KORIN-LAB.11068"
"KORIN-LAB.11069"
)

Pstream initialised with:
    floatTransfer      : 0
    nProcsSimpleSum    : 0
    commsType          : nonBlocking
    polling iterations : 0
sigFpe : Enabling floating point exception trapping (FOAM_SIGFPE).
fileModificationChecking : Monitoring run-time modified files using timeStampMaster (fileModificationSkew 10)
allowSystemOperations : Allowing user-supplied system call operations

// * * * * * * * * * * * * * * * * * * * * * * * * * * * * * * * * * * * * * //
Create time

Create mesh for time = 0


SIMPLE: Convergence criteria found
        p: tolerance 0.001
        U: tolerance 0.0001
        "(k|epsilon|omega|f|v2)": tolerance 0.0001

Reading field p

Reading field U

Reading/calculating face flux field phi

Selecting incompressible transport model powerLaw
Selecting turbulence model type laminar
Selecting laminar stress model Stokes
No MRF models present

No fvModels present
No fvConstraints present

Starting time loop

wallShearStress wallShearStress:
    processing all wall patches

Time = 1

smoothSolver:  Solving for Ux, Initial residual = 0.865117505028, Final residual = 0.0665201283779, No Iterations 2
smoothSolver:  Solving for Uy, Initial residual = 0.999999999999, Final residual = 0.0549453940828, No Iterations 2
smoothSolver:  Solving for Uz, Initial residual = 1, Final residual = 0.0756372885922, No Iterations 2
GAMG:  Solving for p, Initial residual = 0.999999999986, Final residual = 0.029682064797, No Iterations 21
time step continuity errors : sum local = 0.016175765106, global = -0.00031833767448, cumulative = -0.00031833767448
ExecutionTime = 0.11 s  ClockTime = 1 s

Time = 2

smoothSolver:  Solving for Ux, Initial residual = 0.687556884862, Final residual = 0.0421809610107, No Iterations 4
smoothSolver:  Solving for Uy, Initial residual = 0.97621088247, Final residual = 0.0840440399206, No Iterations 4
smoothSolver:  Solving for Uz, Initial residual = 0.952767615266, Final residual = 0.0802997609677, No Iterations 4
GAMG:  Solving for p, Initial residual = 0.00472349674885, Final residual = 0.000234186686598, No Iterations 8
time step continuity errors : sum local = 58.4042497302, global = 7.35845632538, cumulative = 7.3581379877
ExecutionTime = 0.15 s  ClockTime = 1 s

Time = 3

smoothSolver:  Solving for Ux, Initial residual = 0.606441368423, Final residual = 0.045647131996, No Iterations 2
smoothSolver:  Solving for Uy, Initial residual = 0.132481846245, Final residual = 0.00846632466476, No Iterations 4
smoothSolver:  Solving for Uz, Initial residual = 0.0698182942213, Final residual = 0.00575555276077, No Iterations 4
GAMG:  Solving for p, Initial residual = 0.00594260987416, Final residual = 0.000252971323958, No Iterations 10
time step continuity errors : sum local = 26.7986163888, global = 3.13709166248, cumulative = 10.4952296502
ExecutionTime = 0.2 s  ClockTime = 1 s

Time = 4

smoothSolver:  Solving for Ux, Initial residual = 0.253450470618, Final residual = 0.0182972939867, No Iterations 3
smoothSolver:  Solving for Uy, Initial residual = 0.0926663085538, Final residual = 0.00745324250546, No Iterations 4
smoothSolver:  Solving for Uz, Initial residual = 0.0182902028741, Final residual = 0.00169427555762, No Iterations 3
GAMG:  Solving for p, Initial residual = 0.444338738472, Final residual = 0.00921477311269, No Iterations 9
time step continuity errors : sum local = 24.7439210504, global = 1.52271952907, cumulative = 12.0179491793
ExecutionTime = 0.25 s  ClockTime = 1 s

Time = 5

smoothSolver:  Solving for Ux, Initial residual = 0.0350983029534, Final residual = 0.00253313856172, No Iterations 3
smoothSolver:  Solving for Uy, Initial residual = 0.0267362915007, Final residual = 0.00161274587318, No Iterations 4
smoothSolver:  Solving for Uz, Initial residual = 0.0748932625983, Final residual = 0.00584645848697, No Iterations 4
GAMG:  Solving for p, Initial residual = 0.0273010389249, Final residual = 0.0012924329066, No Iterations 6
time step continuity errors : sum local = 29.3761793863, global = -0.936612581558, cumulative = 11.0813365977
ExecutionTime = 0.29 s  ClockTime = 1 s

Time = 6

smoothSolver:  Solving for Ux, Initial residual = 0.0135741220163, Final residual = 0.000715658626613, No Iterations 3
smoothSolver:  Solving for Uy, Initial residual = 0.238718275742, Final residual = 0.0193711233744, No Iterations 4
smoothSolver:  Solving for Uz, Initial residual = 0.232081284086, Final residual = 0.0194029014532, No Iterations 4
GAMG:  Solving for p, Initial residual = 0.0275397256239, Final residual = 0.00107177827583, No Iterations 8
time step continuity errors : sum local = 13.2019176434, global = -1.09672696329, cumulative = 9.9846096344
ExecutionTime = 0.34 s  ClockTime = 1 s

Time = 7

smoothSolver:  Solving for Ux, Initial residual = 0.0162518075003, Final residual = 0.00108240113939, No Iterations 3
smoothSolver:  Solving for Uy, Initial residual = 0.250541510526, Final residual = 0.0212876438375, No Iterations 4
smoothSolver:  Solving for Uz, Initial residual = 0.123893913968, Final residual = 0.00997178130637, No Iterations 4
GAMG:  Solving for p, Initial residual = 0.0694747021996, Final residual = 0.00231244159271, No Iterations 7
time step continuity errors : sum local = 17.4538606472, global = -0.762422933485, cumulative = 9.22218670092
ExecutionTime = 0.39 s  ClockTime = 1 s

Time = 8

smoothSolver:  Solving for Ux, Initial residual = 0.0169106767049, Final residual = 0.00130847535337, No Iterations 3
smoothSolver:  Solving for Uy, Initial residual = 0.0674567802916, Final residual = 0.0055277290961, No Iterations 4
smoothSolver:  Solving for Uz, Initial residual = 0.0452568530156, Final residual = 0.00329305159468, No Iterations 4
GAMG:  Solving for p, Initial residual = 0.468836989101, Final residual = 0.00808336062001, No Iterations 7
time step continuity errors : sum local = 6.79714337638, global = -0.0178675031322, cumulative = 9.20431919779
ExecutionTime = 0.44 s  ClockTime = 1 s

Time = 9

smoothSolver:  Solving for Ux, Initial residual = 0.0152570489158, Final residual = 0.00134301105921, No Iterations 3
smoothSolver:  Solving for Uy, Initial residual = 0.0510339306473, Final residual = 0.00389133713825, No Iterations 4
smoothSolver:  Solving for Uz, Initial residual = 0.0836583535915, Final residual = 0.00667583248594, No Iterations 4
GAMG:  Solving for p, Initial residual = 0.0366432428544, Final residual = 0.00181146400625, No Iterations 5
time step continuity errors : sum local = 8.52793379441, global = 0.570845952792, cumulative = 9.77516515058
ExecutionTime = 0.48 s  ClockTime = 1 s

Time = 10

smoothSolver:  Solving for Ux, Initial residual = 0.0161600311047, Final residual = 0.00143102975465, No Iterations 3
smoothSolver:  Solving for Uy, Initial residual = 0.218053790232, Final residual = 0.0181484183593, No Iterations 4
smoothSolver:  Solving for Uz, Initial residual = 0.21049327706, Final residual = 0.0177436572039, No Iterations 4
GAMG:  Solving for p, Initial residual = 0.0222969929704, Final residual = 0.00102086218568, No Iterations 9
time step continuity errors : sum local = 5.49661142591, global = 0.113189625331, cumulative = 9.88835477591
ExecutionTime = 0.53 s  ClockTime = 1 s

Time = 11

smoothSolver:  Solving for Ux, Initial residual = 0.013357921577, Final residual = 0.00104710237127, No Iterations 3
smoothSolver:  Solving for Uy, Initial residual = 0.23963761636, Final residual = 0.0204292910983, No Iterations 4
smoothSolver:  Solving for Uz, Initial residual = 0.0609136732515, Final residual = 0.00510735610698, No Iterations 4
GAMG:  Solving for p, Initial residual = 0.0528775075334, Final residual = 0.00160282243533, No Iterations 7
time step continuity errors : sum local = 4.46219748597, global = 0.192102079221, cumulative = 10.0804568551
ExecutionTime = 0.58 s  ClockTime = 1 s

Time = 12

smoothSolver:  Solving for Ux, Initial residual = 0.00794160938743, Final residual = 0.000623271360493, No Iterations 3
smoothSolver:  Solving for Uy, Initial residual = 0.0627230343749, Final residual = 0.00514227055097, No Iterations 4
smoothSolver:  Solving for Uz, Initial residual = 0.0295257854534, Final residual = 0.00238505786539, No Iterations 4
GAMG:  Solving for p, Initial residual = 0.184508219842, Final residual = 0.00454494684647, No Iterations 7
time step continuity errors : sum local = 2.95557050799, global = 0.0919706436717, cumulative = 10.1724274988
ExecutionTime = 0.63 s  ClockTime = 1 s

Time = 13

smoothSolver:  Solving for Ux, Initial residual = 0.00419694592839, Final residual = 0.000367063444155, No Iterations 3
smoothSolver:  Solving for Uy, Initial residual = 0.0428834517573, Final residual = 0.00339165040406, No Iterations 4
smoothSolver:  Solving for Uz, Initial residual = 0.0196259006568, Final residual = 0.00152231465215, No Iterations 4
GAMG:  Solving for p, Initial residual = 0.0863476721339, Final residual = 0.00396919238298, No Iterations 6
time step continuity errors : sum local = 3.5014119911, global = 0.00833859256726, cumulative = 10.1807660914
ExecutionTime = 0.67 s  ClockTime = 1 s

Time = 14

smoothSolver:  Solving for Ux, Initial residual = 0.00322525411065, Final residual = 0.000177609172038, No Iterations 4
smoothSolver:  Solving for Uy, Initial residual = 0.106370726002, Final residual = 0.00884905352602, No Iterations 4
smoothSolver:  Solving for Uz, Initial residual = 0.0201571953767, Final residual = 0.00154492514714, No Iterations 4
GAMG:  Solving for p, Initial residual = 0.0585035735992, Final residual = 0.00149624391448, No Iterations 7
time step continuity errors : sum local = 1.41949213031, global = -0.0911013141931, cumulative = 10.0896647772
ExecutionTime = 0.72 s  ClockTime = 1 s

Time = 15

smoothSolver:  Solving for Ux, Initial residual = 0.00339071204572, Final residual = 0.0001995113518, No Iterations 4
smoothSolver:  Solving for Uy, Initial residual = 0.280384840445, Final residual = 0.0236493475622, No Iterations 4
smoothSolver:  Solving for Uz, Initial residual = 0.0235416371268, Final residual = 0.00183318779427, No Iterations 4
GAMG:  Solving for p, Initial residual = 0.0707230664354, Final residual = 0.00343158551808, No Iterations 6
time step continuity errors : sum local = 2.20924486587, global = -0.0174856113024, cumulative = 10.0721791659
ExecutionTime = 0.77 s  ClockTime = 1 s

Time = 16

smoothSolver:  Solving for Ux, Initial residual = 0.00350097979754, Final residual = 0.000219099514487, No Iterations 4
smoothSolver:  Solving for Uy, Initial residual = 0.128346061749, Final residual = 0.0104958610191, No Iterations 4
smoothSolver:  Solving for Uz, Initial residual = 0.0261843085614, Final residual = 0.00208221494484, No Iterations 4
GAMG:  Solving for p, Initial residual = 0.145000838806, Final residual = 0.00268748040838, No Iterations 7
time step continuity errors : sum local = 0.641452089821, global = -0.0282370544303, cumulative = 10.0439421114
ExecutionTime = 0.82 s  ClockTime = 1 s

Time = 17

smoothSolver:  Solving for Ux, Initial residual = 0.00337454599541, Final residual = 0.000228761124595, No Iterations 4
smoothSolver:  Solving for Uy, Initial residual = 0.0943170232678, Final residual = 0.0077543892066, No Iterations 4
smoothSolver:  Solving for Uz, Initial residual = 0.025544748915, Final residual = 0.00209728983663, No Iterations 4
GAMG:  Solving for p, Initial residual = 0.0913001385999, Final residual = 0.00455700557259, No Iterations 6
time step continuity errors : sum local = 1.17379814567, global = 0.0078512404414, cumulative = 10.0517933519
ExecutionTime = 0.86 s  ClockTime = 1 s

Time = 18

smoothSolver:  Solving for Ux, Initial residual = 0.00321282063414, Final residual = 0.000226265698859, No Iterations 4
smoothSolver:  Solving for Uy, Initial residual = 0.130270970657, Final residual = 0.0109137333019, No Iterations 4
smoothSolver:  Solving for Uz, Initial residual = 0.022576458496, Final residual = 0.00190292379697, No Iterations 4
GAMG:  Solving for p, Initial residual = 0.057362263973, Final residual = 0.00193792515997, No Iterations 6
time step continuity errors : sum local = 0.623902481196, global = 0.0161347813842, cumulative = 10.0679281333
ExecutionTime = 0.91 s  ClockTime = 1 s

Time = 19

smoothSolver:  Solving for Ux, Initial residual = 0.00302498547955, Final residual = 0.000214417045594, No Iterations 4
smoothSolver:  Solving for Uy, Initial residual = 0.0955758387985, Final residual = 0.0080044302293, No Iterations 4
smoothSolver:  Solving for Uz, Initial residual = 0.0177174853507, Final residual = 0.0015012444659, No Iterations 4
GAMG:  Solving for p, Initial residual = 0.0575520824904, Final residual = 0.00153422844801, No Iterations 7
time step continuity errors : sum local = 0.436268094297, global = 0.0185521866885, cumulative = 10.08648032
ExecutionTime = 0.96 s  ClockTime = 1 s

Time = 20

smoothSolver:  Solving for Ux, Initial residual = 0.00276171056608, Final residual = 0.000202020483961, No Iterations 4
smoothSolver:  Solving for Uy, Initial residual = 0.052123231034, Final residual = 0.00418836202771, No Iterations 4
smoothSolver:  Solving for Uz, Initial residual = 0.0129738865286, Final residual = 0.00108248089646, No Iterations 4
GAMG:  Solving for p, Initial residual = 0.0691105911425, Final residual = 0.00309158133057, No Iterations 5
time step continuity errors : sum local = 0.663174966639, global = 0.0137124247291, cumulative = 10.1001927447
ExecutionTime = 1 s  ClockTime = 1 s

Time = 21

smoothSolver:  Solving for Ux, Initial residual = 0.0025745282377, Final residual = 0.000194041981826, No Iterations 4
smoothSolver:  Solving for Uy, Initial residual = 0.0342904217252, Final residual = 0.00265809074492, No Iterations 4
smoothSolver:  Solving for Uz, Initial residual = 0.00988121251141, Final residual = 0.000795589564511, No Iterations 4
GAMG:  Solving for p, Initial residual = 0.0807018857081, Final residual = 0.00329903803033, No Iterations 5
time step continuity errors : sum local = 0.49681300331, global = 0.00346022074792, cumulative = 10.1036529654
ExecutionTime = 1.05 s  ClockTime = 1 s

Time = 22

smoothSolver:  Solving for Ux, Initial residual = 0.00246831761701, Final residual = 0.00019003498035, No Iterations 4
smoothSolver:  Solving for Uy, Initial residual = 0.0302940871931, Final residual = 0.00232574160105, No Iterations 4
smoothSolver:  Solving for Uz, Initial residual = 0.00900501859884, Final residual = 0.000727176654218, No Iterations 4
GAMG:  Solving for p, Initial residual = 0.0847209352011, Final residual = 0.00328261914462, No Iterations 5
time step continuity errors : sum local = 0.359152354254, global = -0.00196485011935, cumulative = 10.1016881153
ExecutionTime = 1.1 s  ClockTime = 2 s

Time = 23

smoothSolver:  Solving for Ux, Initial residual = 0.00241666337911, Final residual = 0.000189139221885, No Iterations 4
smoothSolver:  Solving for Uy, Initial residual = 0.0343854377617, Final residual = 0.0027499377498, No Iterations 4
smoothSolver:  Solving for Uz, Initial residual = 0.00946399421868, Final residual = 0.000789778653282, No Iterations 4
GAMG:  Solving for p, Initial residual = 0.0736547263116, Final residual = 0.00228966166137, No Iterations 5
time step continuity errors : sum local = 0.217529421195, global = -0.00335367650802, cumulative = 10.0983344388
ExecutionTime = 1.14 s  ClockTime = 2 s

Time = 24

smoothSolver:  Solving for Ux, Initial residual = 0.00240519681718, Final residual = 0.000189933588403, No Iterations 4
smoothSolver:  Solving for Uy, Initial residual = 0.0340675451467, Final residual = 0.00275747355533, No Iterations 4
smoothSolver:  Solving for Uz, Initial residual = 0.00957026210271, Final residual = 0.000813278755289, No Iterations 4
GAMG:  Solving for p, Initial residual = 0.0589643540214, Final residual = 0.00263326846603, No Iterations 4
time step continuity errors : sum local = 0.251939429565, global = -0.00610748556779, cumulative = 10.0922269532
ExecutionTime = 1.19 s  ClockTime = 2 s

Time = 25

smoothSolver:  Solving for Ux, Initial residual = 0.00240144683893, Final residual = 0.00019170834751, No Iterations 4
smoothSolver:  Solving for Uy, Initial residual = 0.029105975402, Final residual = 0.00235432456737, No Iterations 4
smoothSolver:  Solving for Uz, Initial residual = 0.00927969129027, Final residual = 0.00079642269111, No Iterations 4
GAMG:  Solving for p, Initial residual = 0.048858455004, Final residual = 0.00220532103859, No Iterations 5
time step continuity errors : sum local = 0.227407964468, global = -0.00143076792522, cumulative = 10.0907961853
ExecutionTime = 1.23 s  ClockTime = 2 s

Time = 26

smoothSolver:  Solving for Ux, Initial residual = 0.00238996154267, Final residual = 0.000192305871538, No Iterations 4
smoothSolver:  Solving for Uy, Initial residual = 0.0223441734098, Final residual = 0.00174996981755, No Iterations 4
smoothSolver:  Solving for Uz, Initial residual = 0.00846726470794, Final residual = 0.000730326762271, No Iterations 4
GAMG:  Solving for p, Initial residual = 0.0424538748987, Final residual = 0.00133728911674, No Iterations 6
time step continuity errors : sum local = 0.146492401892, global = -0.00262819112433, cumulative = 10.0881679942
ExecutionTime = 1.28 s  ClockTime = 2 s

Time = 27

smoothSolver:  Solving for Ux, Initial residual = 0.00237360170825, Final residual = 0.000192255657469, No Iterations 4
smoothSolver:  Solving for Uy, Initial residual = 0.0167067199962, Final residual = 0.00125443459279, No Iterations 4
smoothSolver:  Solving for Uz, Initial residual = 0.00737874261809, Final residual = 0.00063651677986, No Iterations 4
GAMG:  Solving for p, Initial residual = 0.0375212691133, Final residual = 0.00175837001151, No Iterations 6
time step continuity errors : sum local = 0.200452590675, global = -0.00342421986631, cumulative = 10.0847437743
ExecutionTime = 1.32 s  ClockTime = 2 s

Time = 28

smoothSolver:  Solving for Ux, Initial residual = 0.00235398434663, Final residual = 0.000192216754644, No Iterations 4
smoothSolver:  Solving for Uy, Initial residual = 0.013856337879, Final residual = 0.000992780518082, No Iterations 4
smoothSolver:  Solving for Uz, Initial residual = 0.00642936498, Final residual = 0.000552520730745, No Iterations 4
GAMG:  Solving for p, Initial residual = 0.0340835594547, Final residual = 0.00152879072419, No Iterations 6
time step continuity errors : sum local = 0.167674858263, global = -0.00267238904474, cumulative = 10.0820713853
ExecutionTime = 1.37 s  ClockTime = 2 s

Time = 29

smoothSolver:  Solving for Ux, Initial residual = 0.00233844001869, Final residual = 0.000191829430473, No Iterations 4
smoothSolver:  Solving for Uy, Initial residual = 0.0137751960454, Final residual = 0.00101332590334, No Iterations 4
smoothSolver:  Solving for Uz, Initial residual = 0.00617536210081, Final residual = 0.000530667307223, No Iterations 4
GAMG:  Solving for p, Initial residual = 0.0291667797033, Final residual = 0.000912719070606, No Iterations 5
time step continuity errors : sum local = 0.0981277008397, global = 0.00354284510825, cumulative = 10.0856142304
ExecutionTime = 1.41 s  ClockTime = 2 s

Time = 30

smoothSolver:  Solving for Ux, Initial residual = 0.00232638210197, Final residual = 0.000191306726805, No Iterations 4
smoothSolver:  Solving for Uy, Initial residual = 0.0151611333236, Final residual = 0.00116848727854, No Iterations 4
smoothSolver:  Solving for Uz, Initial residual = 0.00650209129761, Final residual = 0.00056679582941, No Iterations 4
GAMG:  Solving for p, Initial residual = 0.0241932346531, Final residual = 0.00113894533006, No Iterations 4
time step continuity errors : sum local = 0.117697282335, global = -0.0003855827319, cumulative = 10.0852286477
ExecutionTime = 1.46 s  ClockTime = 2 s

Time = 31

smoothSolver:  Solving for Ux, Initial residual = 0.00231773361973, Final residual = 0.000190508706184, No Iterations 4
smoothSolver:  Solving for Uy, Initial residual = 0.0149538429472, Final residual = 0.00116012479648, No Iterations 4
smoothSolver:  Solving for Uz, Initial residual = 0.00658929198258, Final residual = 0.000575971402984, No Iterations 4
GAMG:  Solving for p, Initial residual = 0.0208419764794, Final residual = 0.000781684176045, No Iterations 4
time step continuity errors : sum local = 0.0762263076675, global = -0.000167664021341, cumulative = 10.0850609836
ExecutionTime = 1.5 s  ClockTime = 2 s

Time = 32

smoothSolver:  Solving for Ux, Initial residual = 0.00230197045623, Final residual = 0.000189622248974, No Iterations 4
smoothSolver:  Solving for Uy, Initial residual = 0.0139037315046, Final residual = 0.00108711101864, No Iterations 4
smoothSolver:  Solving for Uz, Initial residual = 0.00634281368447, Final residual = 0.000554672678734, No Iterations 4
GAMG:  Solving for p, Initial residual = 0.019546371701, Final residual = 0.000898921293601, No Iterations 5
time step continuity errors : sum local = 0.0828723794034, global = 0.00354070427852, cumulative = 10.0886016879
ExecutionTime = 1.54 s  ClockTime = 2 s

Time = 33

smoothSolver:  Solving for Ux, Initial residual = 0.00227896266131, Final residual = 0.000188077016425, No Iterations 4
smoothSolver:  Solving for Uy, Initial residual = 0.012414616526, Final residual = 0.000969440503011, No Iterations 4
smoothSolver:  Solving for Uz, Initial residual = 0.00588121118354, Final residual = 0.000512874078112, No Iterations 4
GAMG:  Solving for p, Initial residual = 0.0195108376752, Final residual = 0.000868960281709, No Iterations 5
time step continuity errors : sum local = 0.0771701464044, global = 0.00173963491141, cumulative = 10.0903413228
ExecutionTime = 1.58 s  ClockTime = 2 s

Time = 34

smoothSolver:  Solving for Ux, Initial residual = 0.00226910273723, Final residual = 0.000187635148177, No Iterations 4
smoothSolver:  Solving for Uy, Initial residual = 0.0104816816285, Final residual = 0.000795682427602, No Iterations 4
smoothSolver:  Solving for Uz, Initial residual = 0.00539028808407, Final residual = 0.000467401619128, No Iterations 4
GAMG:  Solving for p, Initial residual = 0.0190281053797, Final residual = 0.000871940992211, No Iterations 5
time step continuity errors : sum local = 0.0750952271596, global = 0.000849527325323, cumulative = 10.0911908502
ExecutionTime = 1.62 s  ClockTime = 2 s

Time = 35

smoothSolver:  Solving for Ux, Initial residual = 0.00224869865349, Final residual = 0.000186081350656, No Iterations 4
smoothSolver:  Solving for Uy, Initial residual = 0.0087710037688, Final residual = 0.000638179974362, No Iterations 4
smoothSolver:  Solving for Uz, Initial residual = 0.00500070663453, Final residual = 0.000430145354201, No Iterations 4
GAMG:  Solving for p, Initial residual = 0.0174220196866, Final residual = 0.00072705832122, No Iterations 5
time step continuity errors : sum local = 0.061245247463, global = 0.00117211354524, cumulative = 10.0923629637
ExecutionTime = 1.67 s  ClockTime = 2 s

Time = 36

smoothSolver:  Solving for Ux, Initial residual = 0.00223826305748, Final residual = 0.000185107532527, No Iterations 4
smoothSolver:  Solving for Uy, Initial residual = 0.0079437614968, Final residual = 0.000573818392525, No Iterations 4
smoothSolver:  Solving for Uz, Initial residual = 0.00487291225944, Final residual = 0.00041857735986, No Iterations 4
GAMG:  Solving for p, Initial residual = 0.0152195712207, Final residual = 0.000650927693584, No Iterations 5
time step continuity errors : sum local = 0.053633905997, global = 0.00127001459352, cumulative = 10.0936329783
ExecutionTime = 1.72 s  ClockTime = 2 s

Time = 37

smoothSolver:  Solving for Ux, Initial residual = 0.00225623954964, Final residual = 0.000186480292632, No Iterations 4
smoothSolver:  Solving for Uy, Initial residual = 0.00813939769405, Final residual = 0.000611168912763, No Iterations 4
smoothSolver:  Solving for Uz, Initial residual = 0.00489520639994, Final residual = 0.000422031363527, No Iterations 4
GAMG:  Solving for p, Initial residual = 0.0129695059797, Final residual = 0.00057134157721, No Iterations 4
time step continuity errors : sum local = 0.0460009126263, global = -0.000276803471222, cumulative = 10.0933561748
ExecutionTime = 1.76 s  ClockTime = 2 s

Time = 38

smoothSolver:  Solving for Ux, Initial residual = 0.00227992123251, Final residual = 0.000188154796291, No Iterations 4
smoothSolver:  Solving for Uy, Initial residual = 0.00822236938154, Final residual = 0.000636592260921, No Iterations 4
smoothSolver:  Solving for Uz, Initial residual = 0.00488884661972, Final residual = 0.000423372182048, No Iterations 4
GAMG:  Solving for p, Initial residual = 0.0110689598905, Final residual = 0.000292924257672, No Iterations 4
time step continuity errors : sum local = 0.0230703465682, global = -0.00017930391343, cumulative = 10.0931768709
ExecutionTime = 1.81 s  ClockTime = 2 s

Time = 39

smoothSolver:  Solving for Ux, Initial residual = 0.00232440426386, Final residual = 0.000191518197041, No Iterations 4
smoothSolver:  Solving for Uy, Initial residual = 0.00780982531283, Final residual = 0.000608327734002, No Iterations 4
smoothSolver:  Solving for Uz, Initial residual = 0.00481627483434, Final residual = 0.00041805637294, No Iterations 4
GAMG:  Solving for p, Initial residual = 0.00989518735644, Final residual = 0.000413787476992, No Iterations 4
time step continuity errors : sum local = 0.0319249953861, global = -0.000520187821877, cumulative = 10.0926566831
ExecutionTime = 1.85 s  ClockTime = 2 s

Time = 40

smoothSolver:  Solving for Ux, Initial residual = 0.00236190253114, Final residual = 0.000194239511561, No Iterations 4
smoothSolver:  Solving for Uy, Initial residual = 0.00715171492114, Final residual = 0.000552352417099, No Iterations 4
smoothSolver:  Solving for Uz, Initial residual = 0.00464527647768, Final residual = 0.000403898514975, No Iterations 4
GAMG:  Solving for p, Initial residual = 0.00967224412381, Final residual = 0.000332188872077, No Iterations 5
time step continuity errors : sum local = 0.0251104203581, global = 0.00131849726031, cumulative = 10.0939751803
ExecutionTime = 1.9 s  ClockTime = 2 s

Time = 41

smoothSolver:  Solving for Ux, Initial residual = 0.0023961933204, Final residual = 0.000196129666353, No Iterations 4
smoothSolver:  Solving for Uy, Initial residual = 0.00649427295357, Final residual = 0.00049452476702, No Iterations 4
smoothSolver:  Solving for Uz, Initial residual = 0.00442589085551, Final residual = 0.000385230648585, No Iterations 4
GAMG:  Solving for p, Initial residual = 0.00941893060568, Final residual = 0.000423328002373, No Iterations 5
time step continuity errors : sum local = 0.0314474783566, global = 0.00179620799225, cumulative = 10.0957713883
ExecutionTime = 1.94 s  ClockTime = 2 s

Time = 42

smoothSolver:  Solving for Ux, Initial residual = 0.00243787148674, Final residual = 0.000197607505222, No Iterations 4
smoothSolver:  Solving for Uy, Initial residual = 0.00617857972463, Final residual = 0.000468607966969, No Iterations 4
smoothSolver:  Solving for Uz, Initial residual = 0.00423061989804, Final residual = 0.000368633428549, No Iterations 4
GAMG:  Solving for p, Initial residual = 0.00878977499388, Final residual = 0.000304315282018, No Iterations 5
time step continuity errors : sum local = 0.0221116859188, global = 0.00127566510579, cumulative = 10.0970470534
ExecutionTime = 1.99 s  ClockTime = 2 s

Time = 43

smoothSolver:  Solving for Ux, Initial residual = 0.00245479274509, Final residual = 0.000198098694385, No Iterations 4
smoothSolver:  Solving for Uy, Initial residual = 0.00633444559088, Final residual = 0.000490946591323, No Iterations 4
smoothSolver:  Solving for Uz, Initial residual = 0.00411608789162, Final residual = 0.000360315515513, No Iterations 4
GAMG:  Solving for p, Initial residual = 0.0078848751748, Final residual = 0.000319064570622, No Iterations 5
time step continuity errors : sum local = 0.0227013516478, global = 0.000977606633612, cumulative = 10.0980246601
ExecutionTime = 2.03 s  ClockTime = 2 s

Time = 44

smoothSolver:  Solving for Ux, Initial residual = 0.0024708457331, Final residual = 0.000197007123929, No Iterations 4
smoothSolver:  Solving for Uy, Initial residual = 0.00672221953568, Final residual = 0.000532798682254, No Iterations 4
smoothSolver:  Solving for Uz, Initial residual = 0.00405963849876, Final residual = 0.00035704379921, No Iterations 4
GAMG:  Solving for p, Initial residual = 0.00682605772197, Final residual = 0.000289923543076, No Iterations 4
time step continuity errors : sum local = 0.0201836871307, global = -0.000124286539254, cumulative = 10.0979003735
ExecutionTime = 2.08 s  ClockTime = 3 s

Time = 45

smoothSolver:  Solving for Ux, Initial residual = 0.00246946176573, Final residual = 0.000196074207627, No Iterations 4
smoothSolver:  Solving for Uy, Initial residual = 0.0068973587848, Final residual = 0.000554936885336, No Iterations 4
smoothSolver:  Solving for Uz, Initial residual = 0.00397300098027, Final residual = 0.000351020077265, No Iterations 4
GAMG:  Solving for p, Initial residual = 0.00584930949944, Final residual = 0.000144911995135, No Iterations 4
time step continuity errors : sum local = 0.00992556290419, global = 2.30937875838e-05, cumulative = 10.0979234673
ExecutionTime = 2.12 s  ClockTime = 3 s

Time = 46

smoothSolver:  Solving for Ux, Initial residual = 0.00250874466779, Final residual = 0.000196943098501, No Iterations 4
smoothSolver:  Solving for Uy, Initial residual = 0.00677516460028, Final residual = 0.000547833450009, No Iterations 4
smoothSolver:  Solving for Uz, Initial residual = 0.00387950001739, Final residual = 0.000344576090782, No Iterations 4
GAMG:  Solving for p, Initial residual = 0.00530971270165, Final residual = 0.000120116461643, No Iterations 5
time step continuity errors : sum local = 0.00812168498253, global = 0.000486175697745, cumulative = 10.098409643
ExecutionTime = 2.18 s  ClockTime = 3 s

Time = 47

smoothSolver:  Solving for Ux, Initial residual = 0.00257193648801, Final residual = 0.000198390059583, No Iterations 4
smoothSolver:  Solving for Uy, Initial residual = 0.00654318116398, Final residual = 0.000526464985683, No Iterations 4
smoothSolver:  Solving for Uz, Initial residual = 0.00377216447574, Final residual = 0.000336531415055, No Iterations 4
GAMG:  Solving for p, Initial residual = 0.00520840604922, Final residual = 0.000152502060488, No Iterations 5
time step continuity errors : sum local = 0.010171207322, global = 0.000570287329841, cumulative = 10.0989799304
ExecutionTime = 2.22 s  ClockTime = 3 s

Time = 48

smoothSolver:  Solving for Ux, Initial residual = 0.00259936505929, Final residual = 0.000199423111089, No Iterations 4
smoothSolver:  Solving for Uy, Initial residual = 0.00624657552363, Final residual = 0.000498164486064, No Iterations 4
smoothSolver:  Solving for Uz, Initial residual = 0.0036679607732, Final residual = 0.000328901747395, No Iterations 4
GAMG:  Solving for p, Initial residual = 0.00514819984, Final residual = 0.000111347375854, No Iterations 6
time step continuity errors : sum local = 0.00730967823137, global = 2.03577467308e-05, cumulative = 10.0990002881
ExecutionTime = 2.27 s  ClockTime = 3 s

Time = 49

smoothSolver:  Solving for Ux, Initial residual = 0.00261841318474, Final residual = 0.000200395261685, No Iterations 4
smoothSolver:  Solving for Uy, Initial residual = 0.00602191061907, Final residual = 0.000478265208433, No Iterations 4
smoothSolver:  Solving for Uz, Initial residual = 0.00359259730819, Final residual = 0.000323036261193, No Iterations 4
GAMG:  Solving for p, Initial residual = 0.0049734561952, Final residual = 0.000135726351845, No Iterations 5
time step continuity errors : sum local = 0.00876044515833, global = 0.000640993029855, cumulative = 10.0996412811
ExecutionTime = 2.31 s  ClockTime = 3 s

Time = 50

smoothSolver:  Solving for Ux, Initial residual = 0.00262737451779, Final residual = 0.000201371289256, No Iterations 4
smoothSolver:  Solving for Uy, Initial residual = 0.00585300218417, Final residual = 0.000462685972395, No Iterations 4
smoothSolver:  Solving for Uz, Initial residual = 0.00352594389355, Final residual = 0.000317793602555, No Iterations 4
GAMG:  Solving for p, Initial residual = 0.00453850229699, Final residual = 0.000206080942998, No Iterations 4
time step continuity errors : sum local = 0.0130958801581, global = -0.000245222429992, cumulative = 10.0993960587
ExecutionTime = 2.36 s  ClockTime = 3 s

Time = 51

smoothSolver:  Solving for Ux, Initial residual = 0.00258696551879, Final residual = 0.000201224906829, No Iterations 4
smoothSolver:  Solving for Uy, Initial residual = 0.00580829089388, Final residual = 0.000461223133712, No Iterations 4
smoothSolver:  Solving for Uz, Initial residual = 0.00347723096305, Final residual = 0.000313095298193, No Iterations 4
GAMG:  Solving for p, Initial residual = 0.00414053155159, Final residual = 0.000148253033963, No Iterations 4
time step continuity errors : sum local = 0.00927173463981, global = -5.57825202107e-05, cumulative = 10.0993402762
ExecutionTime = 2.4 s  ClockTime = 3 s

Time = 52

smoothSolver:  Solving for Ux, Initial residual = 0.00259172794135, Final residual = 0.000200818055771, No Iterations 4
smoothSolver:  Solving for Uy, Initial residual = 0.00581178542433, Final residual = 0.000462144633803, No Iterations 4
smoothSolver:  Solving for Uz, Initial residual = 0.00343630318545, Final residual = 0.000308238857173, No Iterations 4
GAMG:  Solving for p, Initial residual = 0.00375991851227, Final residual = 0.000101086346049, No Iterations 4
time step continuity errors : sum local = 0.00622150581153, global = -3.77300455097e-05, cumulative = 10.0993025461
ExecutionTime = 2.45 s  ClockTime = 3 s

Time = 53

smoothSolver:  Solving for Ux, Initial residual = 0.0025837490647, Final residual = 0.000200559701911, No Iterations 4
smoothSolver:  Solving for Uy, Initial residual = 0.0057939694471, Final residual = 0.00046003888275, No Iterations 4
smoothSolver:  Solving for Uz, Initial residual = 0.00338987631034, Final residual = 0.000302514089898, No Iterations 4
GAMG:  Solving for p, Initial residual = 0.00352613964736, Final residual = 6.94452006935e-05, No Iterations 5
time step continuity errors : sum local = 0.00421073390326, global = 0.000180099667271, cumulative = 10.0994826458
ExecutionTime = 2.49 s  ClockTime = 3 s

Time = 54

smoothSolver:  Solving for Ux, Initial residual = 0.0025800986831, Final residual = 0.00020083287795, No Iterations 4
smoothSolver:  Solving for Uy, Initial residual = 0.00569908224223, Final residual = 0.00045332043521, No Iterations 4
smoothSolver:  Solving for Uz, Initial residual = 0.00332389364148, Final residual = 0.000295726359172, No Iterations 4
GAMG:  Solving for p, Initial residual = 0.00339842578342, Final residual = 9.15030650449e-05, No Iterations 5
time step continuity errors : sum local = 0.00545621617131, global = 0.000315503030607, cumulative = 10.0997981488
ExecutionTime = 2.54 s  ClockTime = 3 s

Time = 55

smoothSolver:  Solving for Ux, Initial residual = 0.00258267728385, Final residual = 0.000201222993855, No Iterations 4
smoothSolver:  Solving for Uy, Initial residual = 0.00561496331391, Final residual = 0.000448562394558, No Iterations 4
smoothSolver:  Solving for Uz, Initial residual = 0.00325261426672, Final residual = 0.00028885444012, No Iterations 4
GAMG:  Solving for p, Initial residual = 0.00327073681884, Final residual = 9.0186882368e-05, No Iterations 5
time step continuity errors : sum local = 0.00529242180889, global = 0.000322385210486, cumulative = 10.100120534
ExecutionTime = 2.58 s  ClockTime = 3 s

Time = 56

smoothSolver:  Solving for Ux, Initial residual = 0.00260405269208, Final residual = 0.000201611670784, No Iterations 4
smoothSolver:  Solving for Uy, Initial residual = 0.00557895796869, Final residual = 0.00044810141353, No Iterations 4
smoothSolver:  Solving for Uz, Initial residual = 0.00318245019885, Final residual = 0.000282455512541, No Iterations 4
GAMG:  Solving for p, Initial residual = 0.00307392615231, Final residual = 7.94337864916e-05, No Iterations 5
time step continuity errors : sum local = 0.00458820710352, global = 0.000357559916038, cumulative = 10.100478094
ExecutionTime = 2.63 s  ClockTime = 3 s

Time = 57

smoothSolver:  Solving for Ux, Initial residual = 0.00262352525557, Final residual = 0.000202045695, No Iterations 4
smoothSolver:  Solving for Uy, Initial residual = 0.00559979227126, Final residual = 0.000454281193889, No Iterations 4
smoothSolver:  Solving for Uz, Initial residual = 0.0031165535241, Final residual = 0.000276823310185, No Iterations 4
GAMG:  Solving for p, Initial residual = 0.00280997668434, Final residual = 6.93584437687e-05, No Iterations 5
time step continuity errors : sum local = 0.00394466580657, global = 0.000308232958854, cumulative = 10.1007863269
ExecutionTime = 2.67 s  ClockTime = 3 s

Time = 58

smoothSolver:  Solving for Ux, Initial residual = 0.00263048121738, Final residual = 0.000202795937665, No Iterations 4
smoothSolver:  Solving for Uy, Initial residual = 0.00566611364864, Final residual = 0.000462850051313, No Iterations 4
smoothSolver:  Solving for Uz, Initial residual = 0.00305685579358, Final residual = 0.000271709826523, No Iterations 4
GAMG:  Solving for p, Initial residual = 0.00253497617493, Final residual = 0.000116263819071, No Iterations 4
time step continuity errors : sum local = 0.00651217820035, global = 8.19808992965e-05, cumulative = 10.1008683078
ExecutionTime = 2.72 s  ClockTime = 3 s

Time = 59

smoothSolver:  Solving for Ux, Initial residual = 0.0026474265587, Final residual = 0.000203799028537, No Iterations 4
smoothSolver:  Solving for Uy, Initial residual = 0.00573364031793, Final residual = 0.000469311101063, No Iterations 4
smoothSolver:  Solving for Uz, Initial residual = 0.00299954909833, Final residual = 0.000266785107546, No Iterations 4
GAMG:  Solving for p, Initial residual = 0.00232073776378, Final residual = 0.000110682807199, No Iterations 4
time step continuity errors : sum local = 0.00611521091996, global = -0.000147819531975, cumulative = 10.1007204883
ExecutionTime = 2.76 s  ClockTime = 3 s

Time = 60

smoothSolver:  Solving for Ux, Initial residual = 0.00268511980189, Final residual = 0.000204980828228, No Iterations 4
smoothSolver:  Solving for Uy, Initial residual = 0.00569220644639, Final residual = 0.000466734159463, No Iterations 4
smoothSolver:  Solving for Uz, Initial residual = 0.00293500885975, Final residual = 0.000261780358015, No Iterations 4
GAMG:  Solving for p, Initial residual = 0.00216122736794, Final residual = 4.03787706536e-05, No Iterations 5
time step continuity errors : sum local = 0.00219798781659, global = 0.000140917022699, cumulative = 10.1008614053
ExecutionTime = 2.81 s  ClockTime = 3 s

Time = 61

smoothSolver:  Solving for Ux, Initial residual = 0.00269499672826, Final residual = 0.00020636717253, No Iterations 4
smoothSolver:  Solving for Uy, Initial residual = 0.00565422899067, Final residual = 0.000464407676667, No Iterations 4
smoothSolver:  Solving for Uz, Initial residual = 0.00287016073922, Final residual = 0.000256840761371, No Iterations 4
GAMG:  Solving for p, Initial residual = 0.00205676050955, Final residual = 4.98850279189e-05, No Iterations 5
time step continuity errors : sum local = 0.00267800293379, global = 0.000253969885608, cumulative = 10.1011153752
ExecutionTime = 2.85 s  ClockTime = 3 s

Time = 62

smoothSolver:  Solving for Ux, Initial residual = 0.00273178441835, Final residual = 0.000208056934217, No Iterations 4
smoothSolver:  Solving for Uy, Initial residual = 0.00560477057965, Final residual = 0.000460140369933, No Iterations 4
smoothSolver:  Solving for Uz, Initial residual = 0.00280532768708, Final residual = 0.000252086590331, No Iterations 4
GAMG:  Solving for p, Initial residual = 0.00198753436933, Final residual = 5.54775843155e-05, No Iterations 5
time step continuity errors : sum local = 0.0029393030938, global = 0.000279675473921, cumulative = 10.1013950507
ExecutionTime = 2.9 s  ClockTime = 3 s

Time = 63

smoothSolver:  Solving for Ux, Initial residual = 0.00278745345628, Final residual = 0.000209803050631, No Iterations 4
smoothSolver:  Solving for Uy, Initial residual = 0.00555752021955, Final residual = 0.000455401386332, No Iterations 4
smoothSolver:  Solving for Uz, Initial residual = 0.0027427931853, Final residual = 0.000247551434393, No Iterations 4
GAMG:  Solving for p, Initial residual = 0.00193253158432, Final residual = 4.11875363683e-05, No Iterations 5
time step continuity errors : sum local = 0.00215449022159, global = 0.000161957809159, cumulative = 10.1015570085
ExecutionTime = 2.94 s  ClockTime = 3 s

Time = 64

smoothSolver:  Solving for Ux, Initial residual = 0.00283906740913, Final residual = 0.000211385024314, No Iterations 4
smoothSolver:  Solving for Uy, Initial residual = 0.00551284968874, Final residual = 0.000450917055692, No Iterations 4
smoothSolver:  Solving for Uz, Initial residual = 0.00267825016458, Final residual = 0.00024320088954, No Iterations 4
GAMG:  Solving for p, Initial residual = 0.00186173588587, Final residual = 3.86460260532e-05, No Iterations 5
time step continuity errors : sum local = 0.00199605884524, global = 0.000160174693049, cumulative = 10.1017171832
ExecutionTime = 2.99 s  ClockTime = 3 s

Time = 65

smoothSolver:  Solving for Ux, Initial residual = 0.00281378594547, Final residual = 0.000213185805078, No Iterations 4
smoothSolver:  Solving for Uy, Initial residual = 0.00551843858211, Final residual = 0.000449992080567, No Iterations 4
smoothSolver:  Solving for Uz, Initial residual = 0.00261930547102, Final residual = 0.000239154379477, No Iterations 4
GAMG:  Solving for p, Initial residual = 0.00180093632692, Final residual = 8.0703470029e-05, No Iterations 4
time step continuity errors : sum local = 0.00411828859243, global = -1.45419981401e-05, cumulative = 10.1017026412
ExecutionTime = 3.03 s  ClockTime = 3 s

Time = 66

smoothSolver:  Solving for Ux, Initial residual = 0.00287733785949, Final residual = 0.00021495189975, No Iterations 4
smoothSolver:  Solving for Uy, Initial residual = 0.00554163964526, Final residual = 0.000450930301694, No Iterations 4
smoothSolver:  Solving for Uz, Initial residual = 0.0025635448289, Final residual = 0.000235116508225, No Iterations 4
GAMG:  Solving for p, Initial residual = 0.00178441331456, Final residual = 7.6604581342e-05, No Iterations 4
time step continuity errors : sum local = 0.0038646916547, global = 1.26225524853e-05, cumulative = 10.1017152637
ExecutionTime = 3.07 s  ClockTime = 4 s

Time = 67

smoothSolver:  Solving for Ux, Initial residual = 0.00293975000071, Final residual = 0.000216432431551, No Iterations 4
smoothSolver:  Solving for Uy, Initial residual = 0.00559952024737, Final residual = 0.000454566943524, No Iterations 4
smoothSolver:  Solving for Uz, Initial residual = 0.00250605848029, Final residual = 0.000231355629623, No Iterations 4
GAMG:  Solving for p, Initial residual = 0.00179255130681, Final residual = 8.16965184758e-05, No Iterations 5
time step continuity errors : sum local = 0.00407553520746, global = 0.000224508524268, cumulative = 10.1019397722
ExecutionTime = 3.12 s  ClockTime = 4 s

Time = 68

smoothSolver:  Solving for Ux, Initial residual = 0.00292480676454, Final residual = 0.000218553204651, No Iterations 4
smoothSolver:  Solving for Uy, Initial residual = 0.00565185492875, Final residual = 0.000457814148545, No Iterations 4
smoothSolver:  Solving for Uz, Initial residual = 0.00246452624703, Final residual = 0.00022828870795, No Iterations 4
GAMG:  Solving for p, Initial residual = 0.00181793003669, Final residual = 7.81626504092e-05, No Iterations 4
time step continuity errors : sum local = 0.00385487722393, global = 0.000116216926184, cumulative = 10.1020559892
ExecutionTime = 3.17 s  ClockTime = 4 s

Time = 69

smoothSolver:  Solving for Ux, Initial residual = 0.00292581142348, Final residual = 0.000220547837862, No Iterations 4
smoothSolver:  Solving for Uy, Initial residual = 0.00568191549634, Final residual = 0.000461865900759, No Iterations 4
smoothSolver:  Solving for Uz, Initial residual = 0.00241901973047, Final residual = 0.000225080490762, No Iterations 4
GAMG:  Solving for p, Initial residual = 0.00185664324713, Final residual = 8.44986071804e-05, No Iterations 4
time step continuity errors : sum local = 0.00412491312436, global = 0.000117095480549, cumulative = 10.1021730847
ExecutionTime = 3.21 s  ClockTime = 4 s

Time = 70

smoothSolver:  Solving for Ux, Initial residual = 0.00288520670486, Final residual = 0.000223008230366, No Iterations 4
smoothSolver:  Solving for Uy, Initial residual = 0.00569680514015, Final residual = 0.000461866689147, No Iterations 4
smoothSolver:  Solving for Uz, Initial residual = 0.0023752149288, Final residual = 0.000221527320384, No Iterations 4
GAMG:  Solving for p, Initial residual = 0.00191942983375, Final residual = 8.08387966061e-05, No Iterations 4
time step continuity errors : sum local = 0.00390051107112, global = 0.00014188738559, cumulative = 10.102314972
ExecutionTime = 3.26 s  ClockTime = 4 s

Time = 71

smoothSolver:  Solving for Ux, Initial residual = 0.00287411186298, Final residual = 0.000226031333203, No Iterations 4
smoothSolver:  Solving for Uy, Initial residual = 0.00573533787651, Final residual = 0.000462752011764, No Iterations 4
smoothSolver:  Solving for Uz, Initial residual = 0.00234298298407, Final residual = 0.000217860994215, No Iterations 4
GAMG:  Solving for p, Initial residual = 0.00196340516135, Final residual = 7.80898273942e-05, No Iterations 4
time step continuity errors : sum local = 0.00372196260422, global = 0.000145689629291, cumulative = 10.1024606617
ExecutionTime = 3.3 s  ClockTime = 4 s

Time = 72

smoothSolver:  Solving for Ux, Initial residual = 0.00287464069829, Final residual = 0.000229082075584, No Iterations 4
smoothSolver:  Solving for Uy, Initial residual = 0.00578113280554, Final residual = 0.000466086985856, No Iterations 4
smoothSolver:  Solving for Uz, Initial residual = 0.00231370601604, Final residual = 0.000213863510861, No Iterations 4
GAMG:  Solving for p, Initial residual = 0.00194926934204, Final residual = 8.97959288571e-05, No Iterations 4
time step continuity errors : sum local = 0.00422292057824, global = 0.000105850363964, cumulative = 10.102566512
ExecutionTime = 3.35 s  ClockTime = 4 s

Time = 73

smoothSolver:  Solving for Ux, Initial residual = 0.00286174029166, Final residual = 0.000232284974522, No Iterations 4
smoothSolver:  Solving for Uy, Initial residual = 0.00576807040134, Final residual = 0.000467992516677, No Iterations 4
smoothSolver:  Solving for Uz, Initial residual = 0.00227724702361, Final residual = 0.000209587558437, No Iterations 4
GAMG:  Solving for p, Initial residual = 0.00187803159516, Final residual = 8.70759736731e-05, No Iterations 4
time step continuity errors : sum local = 0.00403245189191, global = 7.85267247861e-05, cumulative = 10.1026450388
ExecutionTime = 3.39 s  ClockTime = 4 s

Time = 74

smoothSolver:  Solving for Ux, Initial residual = 0.00290471891154, Final residual = 0.000235104594804, No Iterations 4
smoothSolver:  Solving for Uy, Initial residual = 0.00572851557622, Final residual = 0.000466390117633, No Iterations 4
smoothSolver:  Solving for Uz, Initial residual = 0.00224068198624, Final residual = 0.000205360101341, No Iterations 4
GAMG:  Solving for p, Initial residual = 0.00177346389795, Final residual = 8.72911150914e-05, No Iterations 4
time step continuity errors : sum local = 0.00398216451491, global = 5.98257758967e-05, cumulative = 10.1027048645
ExecutionTime = 3.44 s  ClockTime = 4 s

Time = 75

smoothSolver:  Solving for Ux, Initial residual = 0.00296457095093, Final residual = 0.000237835585116, No Iterations 4
smoothSolver:  Solving for Uy, Initial residual = 0.00569101802751, Final residual = 0.000464899799694, No Iterations 4
smoothSolver:  Solving for Uz, Initial residual = 0.00220341118558, Final residual = 0.000201230170479, No Iterations 4
GAMG:  Solving for p, Initial residual = 0.00166679334738, Final residual = 5.29016989863e-05, No Iterations 5
time step continuity errors : sum local = 0.0023785242988, global = 0.000126062098612, cumulative = 10.1028309266
ExecutionTime = 3.48 s  ClockTime = 4 s

Time = 76

smoothSolver:  Solving for Ux, Initial residual = 0.00296404703221, Final residual = 0.000241682143349, No Iterations 4
smoothSolver:  Solving for Uy, Initial residual = 0.00567526012078, Final residual = 0.000464953987041, No Iterations 4
smoothSolver:  Solving for Uz, Initial residual = 0.00216651484042, Final residual = 0.000197215860806, No Iterations 4
GAMG:  Solving for p, Initial residual = 0.00156201299063, Final residual = 7.75850502215e-05, No Iterations 4
time step continuity errors : sum local = 0.00343777505048, global = 6.68492722116e-05, cumulative = 10.1028977759
ExecutionTime = 3.53 s  ClockTime = 4 s

Time = 77

smoothSolver:  Solving for Ux, Initial residual = 0.00301110570016, Final residual = 0.000245256812941, No Iterations 4
smoothSolver:  Solving for Uy, Initial residual = 0.00565021143066, Final residual = 0.000463084948686, No Iterations 4
smoothSolver:  Solving for Uz, Initial residual = 0.00212909982128, Final residual = 0.000193263279867, No Iterations 4
GAMG:  Solving for p, Initial residual = 0.00150226633764, Final residual = 4.99360995451e-05, No Iterations 5
time step continuity errors : sum local = 0.00218279542097, global = 0.000102877039032, cumulative = 10.1030006529
ExecutionTime = 3.57 s  ClockTime = 4 s

Time = 78

smoothSolver:  Solving for Ux, Initial residual = 0.00309001580566, Final residual = 0.000248595187081, No Iterations 4
smoothSolver:  Solving for Uy, Initial residual = 0.00563615533316, Final residual = 0.000461257442556, No Iterations 4
smoothSolver:  Solving for Uz, Initial residual = 0.00209375604428, Final residual = 0.000189534462359, No Iterations 4
GAMG:  Solving for p, Initial residual = 0.00144213802006, Final residual = 4.35457425486e-05, No Iterations 5
time step continuity errors : sum local = 0.00187721331034, global = 0.000104091500709, cumulative = 10.1031047444
ExecutionTime = 3.62 s  ClockTime = 4 s

Time = 79

smoothSolver:  Solving for Ux, Initial residual = 0.00311813636019, Final residual = 0.000252796252252, No Iterations 4
smoothSolver:  Solving for Uy, Initial residual = 0.00560462910389, Final residual = 0.000458484125391, No Iterations 4
smoothSolver:  Solving for Uz, Initial residual = 0.0020579175507, Final residual = 0.00018603783869, No Iterations 4
GAMG:  Solving for p, Initial residual = 0.00136836615295, Final residual = 3.83067069852e-05, No Iterations 5
time step continuity errors : sum local = 0.00162938904619, global = 0.000100047400266, cumulative = 10.1032047918
ExecutionTime = 3.66 s  ClockTime = 4 s

Time = 80

smoothSolver:  Solving for Ux, Initial residual = 0.0031847194718, Final residual = 0.000256222007925, No Iterations 4
smoothSolver:  Solving for Uy, Initial residual = 0.00559571930265, Final residual = 0.000457420625273, No Iterations 4
smoothSolver:  Solving for Uz, Initial residual = 0.00202052133427, Final residual = 0.00018264964373, No Iterations 4
GAMG:  Solving for p, Initial residual = 0.00131941087875, Final residual = 3.81661333824e-05, No Iterations 5
time step continuity errors : sum local = 0.00160237957247, global = 9.17183328395e-05, cumulative = 10.1032965102
ExecutionTime = 3.7 s  ClockTime = 4 s

Time = 81

smoothSolver:  Solving for Ux, Initial residual = 0.00317949311529, Final residual = 0.000261745565644, No Iterations 4
smoothSolver:  Solving for Uy, Initial residual = 0.0056182874343, Final residual = 0.000459296473281, No Iterations 4
smoothSolver:  Solving for Uz, Initial residual = 0.00198767678272, Final residual = 0.000179405763909, No Iterations 4
GAMG:  Solving for p, Initial residual = 0.00129847047768, Final residual = 6.48552082171e-05, No Iterations 4
time step continuity errors : sum local = 0.00268840168334, global = 8.15878149713e-05, cumulative = 10.103378098
ExecutionTime = 3.75 s  ClockTime = 4 s

Time = 82

smoothSolver:  Solving for Ux, Initial residual = 0.00327860997792, Final residual = 0.000265881905006, No Iterations 4
smoothSolver:  Solving for Uy, Initial residual = 0.0056393819016, Final residual = 0.000461834818587, No Iterations 4
smoothSolver:  Solving for Uz, Initial residual = 0.00195248842254, Final residual = 0.000176358848698, No Iterations 4
GAMG:  Solving for p, Initial residual = 0.00127681756372, Final residual = 4.22907435474e-05, No Iterations 5
time step continuity errors : sum local = 0.00173197458571, global = 8.32929813556e-05, cumulative = 10.103461391
ExecutionTime = 3.79 s  ClockTime = 4 s

Time = 83

smoothSolver:  Solving for Ux, Initial residual = 0.00338233920315, Final residual = 0.00026945240579, No Iterations 4
smoothSolver:  Solving for Uy, Initial residual = 0.00565191940853, Final residual = 0.000462707504624, No Iterations 4
smoothSolver:  Solving for Uz, Initial residual = 0.00191331962308, Final residual = 0.00017358781343, No Iterations 4
GAMG:  Solving for p, Initial residual = 0.00124611173545, Final residual = 4.91097449474e-05, No Iterations 5
time step continuity errors : sum local = 0.00198685030148, global = 7.53881207839e-05, cumulative = 10.1035367791
ExecutionTime = 3.84 s  ClockTime = 4 s

Time = 84

smoothSolver:  Solving for Ux, Initial residual = 0.0034577011299, Final residual = 0.000273381192878, No Iterations 4
smoothSolver:  Solving for Uy, Initial residual = 0.00568239928842, Final residual = 0.000465462591472, No Iterations 4
smoothSolver:  Solving for Uz, Initial residual = 0.00187324853573, Final residual = 0.000171142065059, No Iterations 4
GAMG:  Solving for p, Initial residual = 0.0012279471092, Final residual = 5.95694118599e-05, No Iterations 4
time step continuity errors : sum local = 0.00238317071448, global = 0.000106540703039, cumulative = 10.1036433198
ExecutionTime = 3.89 s  ClockTime = 4 s

Time = 85

smoothSolver:  Solving for Ux, Initial residual = 0.00354397094416, Final residual = 0.000276973796536, No Iterations 4
smoothSolver:  Solving for Uy, Initial residual = 0.00574559522257, Final residual = 0.00047027304393, No Iterations 4
smoothSolver:  Solving for Uz, Initial residual = 0.00183305813193, Final residual = 0.000168970551586, No Iterations 4
GAMG:  Solving for p, Initial residual = 0.00124364112343, Final residual = 5.85009822663e-05, No Iterations 5
time step continuity errors : sum local = 0.0023171241, global = 6.99300130536e-05, cumulative = 10.1037132498
ExecutionTime = 3.93 s  ClockTime = 4 s

Time = 86

smoothSolver:  Solving for Ux, Initial residual = 0.00352315167521, Final residual = 0.000282079987884, No Iterations 4
smoothSolver:  Solving for Uy, Initial residual = 0.00579325361289, Final residual = 0.00047444419244, No Iterations 4
smoothSolver:  Solving for Uz, Initial residual = 0.00179630403611, Final residual = 0.000166790052462, No Iterations 4
GAMG:  Solving for p, Initial residual = 0.00127662374989, Final residual = 5.76520651827e-05, No Iterations 4
time step continuity errors : sum local = 0.00225898953039, global = 0.000102023235601, cumulative = 10.103815273
ExecutionTime = 3.97 s  ClockTime = 4 s

Time = 87

smoothSolver:  Solving for Ux, Initial residual = 0.00353132379918, Final residual = 0.000287356875628, No Iterations 4
smoothSolver:  Solving for Uy, Initial residual = 0.00581731374, Final residual = 0.000476509238766, No Iterations 4
smoothSolver:  Solving for Uz, Initial residual = 0.00176215128372, Final residual = 0.00016431629398, No Iterations 4
GAMG:  Solving for p, Initial residual = 0.00131843796432, Final residual = 5.39592198128e-05, No Iterations 5
time step continuity errors : sum local = 0.0020935200226, global = 6.87399433356e-05, cumulative = 10.103884013
ExecutionTime = 4.02 s  ClockTime = 4 s

Time = 88

smoothSolver:  Solving for Ux, Initial residual = 0.00354645416118, Final residual = 0.000293523295993, No Iterations 4
smoothSolver:  Solving for Uy, Initial residual = 0.00583420022948, Final residual = 0.000477130550558, No Iterations 4
smoothSolver:  Solving for Uz, Initial residual = 0.00173830435876, Final residual = 0.000161766664531, No Iterations 4
GAMG:  Solving for p, Initial residual = 0.00135970371434, Final residual = 5.10093940033e-05, No Iterations 5
time step continuity errors : sum local = 0.00195658829117, global = 7.17680052447e-05, cumulative = 10.103955781
ExecutionTime = 4.06 s  ClockTime = 4 s

Time = 89

smoothSolver:  Solving for Ux, Initial residual = 0.00352862365849, Final residual = 0.000301190482305, No Iterations 4
smoothSolver:  Solving for Uy, Initial residual = 0.00585451117945, Final residual = 0.000477899439231, No Iterations 4
smoothSolver:  Solving for Uz, Initial residual = 0.00172310856721, Final residual = 0.00015903947846, No Iterations 4
GAMG:  Solving for p, Initial residual = 0.0013540601627, Final residual = 4.65088974543e-05, No Iterations 5
time step continuity errors : sum local = 0.0017621079505, global = 7.76400447e-05, cumulative = 10.104033421
ExecutionTime = 4.11 s  ClockTime = 5 s

Time = 90

smoothSolver:  Solving for Ux, Initial residual = 0.00357738193599, Final residual = 0.000307750866712, No Iterations 4
smoothSolver:  Solving for Uy, Initial residual = 0.00582175872293, Final residual = 0.000477523715292, No Iterations 4
smoothSolver:  Solving for Uz, Initial residual = 0.00170278329322, Final residual = 0.00015602220678, No Iterations 4
GAMG:  Solving for p, Initial residual = 0.00131603541481, Final residual = 4.55373750998e-05, No Iterations 5
time step continuity errors : sum local = 0.00170149353033, global = 7.26514803628e-05, cumulative = 10.1041060725
ExecutionTime = 4.16 s  ClockTime = 5 s

Time = 91

smoothSolver:  Solving for Ux, Initial residual = 0.00366035172726, Final residual = 0.000313949534042, No Iterations 4
smoothSolver:  Solving for Uy, Initial residual = 0.00578637969715, Final residual = 0.000475997211506, No Iterations 4
smoothSolver:  Solving for Uz, Initial residual = 0.00167958785934, Final residual = 0.000152962218701, No Iterations 4
GAMG:  Solving for p, Initial residual = 0.0012609130962, Final residual = 4.27805021784e-05, No Iterations 5
time step continuity errors : sum local = 0.0015756133663, global = 7.07849220469e-05, cumulative = 10.1041768574
ExecutionTime = 4.2 s  ClockTime = 5 s

Time = 92

smoothSolver:  Solving for Ux, Initial residual = 0.00376660157203, Final residual = 0.000319741373393, No Iterations 4
smoothSolver:  Solving for Uy, Initial residual = 0.00575858806511, Final residual = 0.00047454069233, No Iterations 4
smoothSolver:  Solving for Uz, Initial residual = 0.00165391285647, Final residual = 0.00015000819777, No Iterations 4
GAMG:  Solving for p, Initial residual = 0.00119508514906, Final residual = 4.00847345826e-05, No Iterations 5
time step continuity errors : sum local = 0.00145587327986, global = 6.88658427535e-05, cumulative = 10.1042457233
ExecutionTime = 4.25 s  ClockTime = 5 s

Time = 93

smoothSolver:  Solving for Ux, Initial residual = 0.00385712332125, Final residual = 0.000325243270237, No Iterations 4
smoothSolver:  Solving for Uy, Initial residual = 0.00573254442884, Final residual = 0.000472916691297, No Iterations 4
smoothSolver:  Solving for Uz, Initial residual = 0.00162592277424, Final residual = 0.00014725452622, No Iterations 4
GAMG:  Solving for p, Initial residual = 0.00112878806165, Final residual = 3.81269400507e-05, No Iterations 5
time step continuity errors : sum local = 0.00136654421761, global = 6.98358711522e-05, cumulative = 10.1043155592
ExecutionTime = 4.3 s  ClockTime = 5 s

Time = 94

smoothSolver:  Solving for Ux, Initial residual = 0.00389334588314, Final residual = 0.000331447280136, No Iterations 4
smoothSolver:  Solving for Uy, Initial residual = 0.00572471454344, Final residual = 0.000473012321953, No Iterations 4
smoothSolver:  Solving for Uz, Initial residual = 0.00159802416856, Final residual = 0.000144618543823, No Iterations 4
GAMG:  Solving for p, Initial residual = 0.00106993342178, Final residual = 5.05051095907e-05, No Iterations 4
time step continuity errors : sum local = 0.0017879411601, global = 5.91661948835e-05, cumulative = 10.1043747253
ExecutionTime = 4.34 s  ClockTime = 5 s

Time = 95

smoothSolver:  Solving for Ux, Initial residual = 0.00392258033339, Final residual = 0.000339064068842, No Iterations 4
smoothSolver:  Solving for Uy, Initial residual = 0.00572113007349, Final residual = 0.00047362354685, No Iterations 4
smoothSolver:  Solving for Uz, Initial residual = 0.00157442804066, Final residual = 0.000142174888507, No Iterations 4
GAMG:  Solving for p, Initial residual = 0.0010243654492, Final residual = 4.0136873704e-05, No Iterations 5
time step continuity errors : sum local = 0.00140467639614, global = 6.05349062215e-05, cumulative = 10.1044352603
ExecutionTime = 4.39 s  ClockTime = 5 s

Time = 96

smoothSolver:  Solving for Ux, Initial residual = 0.0040490395619, Final residual = 0.000345011269818, No Iterations 4
smoothSolver:  Solving for Uy, Initial residual = 0.00570631987085, Final residual = 0.000473536855247, No Iterations 4
smoothSolver:  Solving for Uz, Initial residual = 0.00154693107473, Final residual = 0.000139929729631, No Iterations 4
GAMG:  Solving for p, Initial residual = 0.000989152529084, Final residual = 4.38915409689e-05, No Iterations 4
time step continuity errors : sum local = 0.00151693897294, global = 6.30812242294e-05, cumulative = 10.1044983415
ExecutionTime = 4.43 s  ClockTime = 5 s

Time = 97

smoothSolver:  Solving for Ux, Initial residual = 0.00424204269941, Final residual = 0.000348578146204, No Iterations 4
smoothSolver:  Solving for Uy, Initial residual = 0.00571678695028, Final residual = 0.000474087011245, No Iterations 4
smoothSolver:  Solving for Uz, Initial residual = 0.00151677731696, Final residual = 0.000137944806488, No Iterations 4
GAMG:  Solving for p, Initial residual = 0.000978481640764, Final residual = 4.86386100913e-05, No Iterations 5
time step continuity errors : sum local = 0.00166245914336, global = 5.13467783771e-05, cumulative = 10.1045496883
ExecutionTime = 4.48 s  ClockTime = 5 s

Time = 98

smoothSolver:  Solving for Ux, Initial residual = 0.00427327331882, Final residual = 0.000354600284207, No Iterations 4
smoothSolver:  Solving for Uy, Initial residual = 0.00574103913441, Final residual = 0.000475831274364, No Iterations 4
smoothSolver:  Solving for Uz, Initial residual = 0.00148857499032, Final residual = 0.000136238988885, No Iterations 4
GAMG:  Solving for p, Initial residual = 0.000991108571833, Final residual = 4.71694718851e-05, No Iterations 5
time step continuity errors : sum local = 0.00159457210379, global = 4.15288932531e-05, cumulative = 10.1045912172
ExecutionTime = 4.52 s  ClockTime = 5 s

Time = 99

smoothSolver:  Solving for Ux, Initial residual = 0.00439556871259, Final residual = 0.000359650005339, No Iterations 4
smoothSolver:  Solving for Uy, Initial residual = 0.00579018718636, Final residual = 0.000477588749098, No Iterations 4
smoothSolver:  Solving for Uz, Initial residual = 0.00146142310298, Final residual = 0.000134767828437, No Iterations 4
GAMG:  Solving for p, Initial residual = 0.00101061821113, Final residual = 4.92723195588e-05, No Iterations 4
time step continuity errors : sum local = 0.00164843460409, global = 5.84709152878e-05, cumulative = 10.1046496881
ExecutionTime = 4.57 s  ClockTime = 5 s

Time = 100

smoothSolver:  Solving for Ux, Initial residual = 0.00447067134169, Final residual = 0.000364264399672, No Iterations 4
smoothSolver:  Solving for Uy, Initial residual = 0.00582517403036, Final residual = 0.000477787653992, No Iterations 4
smoothSolver:  Solving for Uz, Initial residual = 0.00143405458149, Final residual = 0.000133396770594, No Iterations 4
GAMG:  Solving for p, Initial residual = 0.00104261273231, Final residual = 3.96874073711e-05, No Iterations 5
time step continuity errors : sum local = 0.00131569149508, global = 4.83232622229e-05, cumulative = 10.1046980113
ExecutionTime = 4.61 s  ClockTime = 5 s

Time = 101

smoothSolver:  Solving for Ux, Initial residual = 0.00442411923053, Final residual = 0.000372398565892, No Iterations 4
smoothSolver:  Solving for Uy, Initial residual = 0.00584377549839, Final residual = 0.000478767613144, No Iterations 4
smoothSolver:  Solving for Uz, Initial residual = 0.00141247956941, Final residual = 0.000131956745784, No Iterations 4
GAMG:  Solving for p, Initial residual = 0.00104943020305, Final residual = 3.67075954023e-05, No Iterations 5
time step continuity errors : sum local = 0.00120507038318, global = 5.40524342027e-05, cumulative = 10.1047520638
ExecutionTime = 4.68 s  ClockTime = 5 s

Time = 102

smoothSolver:  Solving for Ux, Initial residual = 0.00450419005501, Final residual = 0.000378748524916, No Iterations 4
smoothSolver:  Solving for Uy, Initial residual = 0.00582777428579, Final residual = 0.00047851023671, No Iterations 4
smoothSolver:  Solving for Uz, Initial residual = 0.00138962200605, Final residual = 0.000130461690633, No Iterations 4
GAMG:  Solving for p, Initial residual = 0.00104281814143, Final residual = 3.88135111544e-05, No Iterations 5
time step continuity errors : sum local = 0.00126139113957, global = 5.43749466673e-05, cumulative = 10.1048064387
ExecutionTime = 4.72 s  ClockTime = 5 s

Time = 103

smoothSolver:  Solving for Ux, Initial residual = 0.0044689768209, Final residual = 0.000386762381408, No Iterations 4
smoothSolver:  Solving for Uy, Initial residual = 0.00579932090856, Final residual = 0.000479192204834, No Iterations 4
smoothSolver:  Solving for Uz, Initial residual = 0.00137098457581, Final residual = 0.000128619262953, No Iterations 4
GAMG:  Solving for p, Initial residual = 0.0010348303273, Final residual = 3.98863858318e-05, No Iterations 5
time step continuity errors : sum local = 0.00128275732944, global = 5.27908607296e-05, cumulative = 10.1048592296
ExecutionTime = 4.77 s  ClockTime = 5 s

Time = 104

smoothSolver:  Solving for Ux, Initial residual = 0.00451752522395, Final residual = 0.000397306779462, No Iterations 4
smoothSolver:  Solving for Uy, Initial residual = 0.00575143673577, Final residual = 0.000477117723833, No Iterations 4
smoothSolver:  Solving for Uz, Initial residual = 0.00136201884405, Final residual = 0.000126548150704, No Iterations 4
GAMG:  Solving for p, Initial residual = 0.00101335922745, Final residual = 3.80949888723e-05, No Iterations 5
time step continuity errors : sum local = 0.00121131894808, global = 5.72417386999e-05, cumulative = 10.1049164713
ExecutionTime = 4.81 s  ClockTime = 5 s

Time = 105

smoothSolver:  Solving for Ux, Initial residual = 0.00467363617615, Final residual = 0.000404660785395, No Iterations 4
smoothSolver:  Solving for Uy, Initial residual = 0.00570957462921, Final residual = 0.000473785399813, No Iterations 4
smoothSolver:  Solving for Uz, Initial residual = 0.00135029939799, Final residual = 0.000124374225831, No Iterations 4
GAMG:  Solving for p, Initial residual = 0.000987425159729, Final residual = 3.67156515785e-05, No Iterations 5
time step continuity errors : sum local = 0.00115298694081, global = 5.6450966959e-05, cumulative = 10.1049729223
ExecutionTime = 4.86 s  ClockTime = 5 s

Time = 106

smoothSolver:  Solving for Ux, Initial residual = 0.0047965642597, Final residual = 0.000409510210575, No Iterations 4
smoothSolver:  Solving for Uy, Initial residual = 0.0056657706894, Final residual = 0.000470632373476, No Iterations 4
smoothSolver:  Solving for Uz, Initial residual = 0.00133618058617, Final residual = 0.00012221889203, No Iterations 4
GAMG:  Solving for p, Initial residual = 0.000946599042171, Final residual = 3.6982454121e-05, No Iterations 5
time step continuity errors : sum local = 0.00114623097844, global = 5.5617276955e-05, cumulative = 10.1050285396
ExecutionTime = 4.91 s  ClockTime = 5 s

Time = 107

smoothSolver:  Solving for Ux, Initial residual = 0.00472745484317, Final residual = 0.000415016397984, No Iterations 4
smoothSolver:  Solving for Uy, Initial residual = 0.00561931554707, Final residual = 0.000468077774847, No Iterations 4
smoothSolver:  Solving for Uz, Initial residual = 0.00132199161993, Final residual = 0.000120047180033, No Iterations 4
GAMG:  Solving for p, Initial residual = 0.00089992509271, Final residual = 3.70253150332e-05, No Iterations 5
time step continuity errors : sum local = 0.00113277284313, global = 5.31899685597e-05, cumulative = 10.1050817295
ExecutionTime = 4.95 s  ClockTime = 5 s

Time = 108

smoothSolver:  Solving for Ux, Initial residual = 0.00477022720358, Final residual = 0.000415210432239, No Iterations 4
smoothSolver:  Solving for Uy, Initial residual = 0.00557696496006, Final residual = 0.000465839303205, No Iterations 4
smoothSolver:  Solving for Uz, Initial residual = 0.00130639309624, Final residual = 0.000118064648917, No Iterations 4
GAMG:  Solving for p, Initial residual = 0.000854630013081, Final residual = 2.94880780242e-05, No Iterations 5
time step continuity errors : sum local = 0.000890890567463, global = 5.29403308252e-05, cumulative = 10.1051346699
ExecutionTime = 5 s  ClockTime = 5 s

Time = 109

smoothSolver:  Solving for Ux, Initial residual = 0.00477007032107, Final residual = 0.000413606414332, No Iterations 4
smoothSolver:  Solving for Uy, Initial residual = 0.00554115338079, Final residual = 0.000463689696973, No Iterations 4
smoothSolver:  Solving for Uz, Initial residual = 0.00128910285447, Final residual = 0.000116329065426, No Iterations 4
GAMG:  Solving for p, Initial residual = 0.000819104818066, Final residual = 2.8346680055e-05, No Iterations 5
time step continuity errors : sum local = 0.000846125189923, global = 5.45257864501e-05, cumulative = 10.1051891956
ExecutionTime = 5.04 s  ClockTime = 5 s

Time = 110

smoothSolver:  Solving for Ux, Initial residual = 0.00488648748498, Final residual = 0.00040719731941, No Iterations 4
smoothSolver:  Solving for Uy, Initial residual = 0.00552007786521, Final residual = 0.000461200757698, No Iterations 4
smoothSolver:  Solving for Uz, Initial residual = 0.00127001023429, Final residual = 0.000114922126006, No Iterations 4
GAMG:  Solving for p, Initial residual = 0.000797666484461, Final residual = 3.75507552765e-05, No Iterations 5
time step continuity errors : sum local = 0.00110832526395, global = 5.22086450225e-05, cumulative = 10.1052414043
ExecutionTime = 5.09 s  ClockTime = 6 s

Time = 111

smoothSolver:  Solving for Ux, Initial residual = 0.00486844786207, Final residual = 0.000401721032452, No Iterations 4
smoothSolver:  Solving for Uy, Initial residual = 0.00553908242577, Final residual = 0.000461577616882, No Iterations 4
smoothSolver:  Solving for Uz, Initial residual = 0.00125155978537, Final residual = 0.000113729782305, No Iterations 4
GAMG:  Solving for p, Initial residual = 0.000802770518324, Final residual = 2.33308624497e-05, No Iterations 5
time step continuity errors : sum local = 0.000681595206555, global = 6.2985299788e-05, cumulative = 10.1053043896
ExecutionTime = 5.13 s  ClockTime = 6 s

Time = 112

smoothSolver:  Solving for Ux, Initial residual = 0.00480345256139, Final residual = 0.000397616694167, No Iterations 4
smoothSolver:  Solving for Uy, Initial residual = 0.00557981974137, Final residual = 0.000463253754036, No Iterations 4
smoothSolver:  Solving for Uz, Initial residual = 0.00122956155562, Final residual = 0.000112840685202, No Iterations 4
GAMG:  Solving for p, Initial residual = 0.000807992898134, Final residual = 2.48571397381e-05, No Iterations 5
time step continuity errors : sum local = 0.000719257820403, global = 5.96419767682e-05, cumulative = 10.1053640316
ExecutionTime = 5.18 s  ClockTime = 6 s

Time = 113

smoothSolver:  Solving for Ux, Initial residual = 0.00459640574332, Final residual = 0.000394991517725, No Iterations 4
smoothSolver:  Solving for Uy, Initial residual = 0.00558398656527, Final residual = 0.000463582384271, No Iterations 4
smoothSolver:  Solving for Uz, Initial residual = 0.0012101856004, Final residual = 0.000111954174238, No Iterations 4
GAMG:  Solving for p, Initial residual = 0.000818655712644, Final residual = 2.73908078086e-05, No Iterations 5
time step continuity errors : sum local = 0.000785227396347, global = 5.92637706935e-05, cumulative = 10.1054232953
ExecutionTime = 5.22 s  ClockTime = 6 s

Time = 114

smoothSolver:  Solving for Ux, Initial residual = 0.00446616954284, Final residual = 0.000395170311101, No Iterations 4
smoothSolver:  Solving for Uy, Initial residual = 0.00555904729148, Final residual = 0.00046232855074, No Iterations 4
smoothSolver:  Solving for Uz, Initial residual = 0.00119605154055, Final residual = 0.000110963253983, No Iterations 4
GAMG:  Solving for p, Initial residual = 0.000816638491205, Final residual = 2.7173501819e-05, No Iterations 5
time step continuity errors : sum local = 0.000771892584972, global = 5.31341385476e-05, cumulative = 10.1054764295
ExecutionTime = 5.27 s  ClockTime = 6 s

Time = 115

smoothSolver:  Solving for Ux, Initial residual = 0.00456402422602, Final residual = 0.000388094278679, No Iterations 4
smoothSolver:  Solving for Uy, Initial residual = 0.00555225005004, Final residual = 0.000460503259948, No Iterations 4
smoothSolver:  Solving for Uz, Initial residual = 0.00117809533859, Final residual = 0.000110127848206, No Iterations 4
GAMG:  Solving for p, Initial residual = 0.000827272579828, Final residual = 2.71142551022e-05, No Iterations 5
time step continuity errors : sum local = 0.000762800756402, global = 4.79489824363e-05, cumulative = 10.1055243785
ExecutionTime = 5.31 s  ClockTime = 6 s

Time = 116

smoothSolver:  Solving for Ux, Initial residual = 0.00443860453793, Final residual = 0.000383745156864, No Iterations 4
smoothSolver:  Solving for Uy, Initial residual = 0.00554750282981, Final residual = 0.000460197419762, No Iterations 4
smoothSolver:  Solving for Uz, Initial residual = 0.00116023969176, Final residual = 0.000109159073581, No Iterations 4
GAMG:  Solving for p, Initial residual = 0.000827380359962, Final residual = 2.81957615943e-05, No Iterations 5
time step continuity errors : sum local = 0.000785718479535, global = 4.68008456953e-05, cumulative = 10.1055711793
ExecutionTime = 5.36 s  ClockTime = 6 s

Time = 117

smoothSolver:  Solving for Ux, Initial residual = 0.00437373911009, Final residual = 0.000380734204385, No Iterations 4
smoothSolver:  Solving for Uy, Initial residual = 0.00548555475296, Final residual = 0.000457999269332, No Iterations 4
smoothSolver:  Solving for Uz, Initial residual = 0.00115307472032, Final residual = 0.000107934114426, No Iterations 4
GAMG:  Solving for p, Initial residual = 0.000811555976994, Final residual = 2.88371147064e-05, No Iterations 5
time step continuity errors : sum local = 0.000795880990943, global = 5.04783011355e-05, cumulative = 10.1056216576
ExecutionTime = 5.41 s  ClockTime = 6 s

Time = 118

smoothSolver:  Solving for Ux, Initial residual = 0.00423993588121, Final residual = 0.000378694151015, No Iterations 4
smoothSolver:  Solving for Uy, Initial residual = 0.00544314607663, Final residual = 0.000456117764356, No Iterations 4
smoothSolver:  Solving for Uz, Initial residual = 0.00114805516797, Final residual = 0.00010638536456, No Iterations 4
GAMG:  Solving for p, Initial residual = 0.000786362643302, Final residual = 2.73286338653e-05, No Iterations 5
time step continuity errors : sum local = 0.000746212412377, global = 5.53142150154e-05, cumulative = 10.1056769718
ExecutionTime = 5.45 s  ClockTime = 6 s

Time = 119

smoothSolver:  Solving for Ux, Initial residual = 0.00418287414994, Final residual = 0.000374869234237, No Iterations 4
smoothSolver:  Solving for Uy, Initial residual = 0.00540753024552, Final residual = 0.000455559297797, No Iterations 4
smoothSolver:  Solving for Uz, Initial residual = 0.00114106056363, Final residual = 0.000104652677067, No Iterations 4
GAMG:  Solving for p, Initial residual = 0.000759748411321, Final residual = 2.87900484564e-05, No Iterations 5
time step continuity errors : sum local = 0.000776866475145, global = 5.91597093244e-05, cumulative = 10.1057361315
ExecutionTime = 5.5 s  ClockTime = 6 s

Time = 120

smoothSolver:  Solving for Ux, Initial residual = 0.00417022979262, Final residual = 0.000369311297127, No Iterations 4
smoothSolver:  Solving for Uy, Initial residual = 0.00537185993565, Final residual = 0.000453623276935, No Iterations 4
smoothSolver:  Solving for Uz, Initial residual = 0.00113165712802, Final residual = 0.000102939746847, No Iterations 4
GAMG:  Solving for p, Initial residual = 0.000732320586329, Final residual = 2.987486784e-05, No Iterations 5
time step continuity errors : sum local = 0.000796474029388, global = 5.89439703715e-05, cumulative = 10.1057950755
ExecutionTime = 5.54 s  ClockTime = 6 s

Time = 121

smoothSolver:  Solving for Ux, Initial residual = 0.00430323761838, Final residual = 0.000358389909982, No Iterations 4
smoothSolver:  Solving for Uy, Initial residual = 0.00532693898114, Final residual = 0.000449225025824, No Iterations 4
smoothSolver:  Solving for Uz, Initial residual = 0.00112142885204, Final residual = 0.000101471245819, No Iterations 4
GAMG:  Solving for p, Initial residual = 0.000714484562549, Final residual = 1.42747172881e-05, No Iterations 7
time step continuity errors : sum local = 0.000376150081045, global = 3.5287691232e-05, cumulative = 10.1058303632
ExecutionTime = 5.59 s  ClockTime = 6 s

Time = 122

smoothSolver:  Solving for Ux, Initial residual = 0.00419183308108, Final residual = 0.000352077259667, No Iterations 4
smoothSolver:  Solving for Uy, Initial residual = 0.00531637707958, Final residual = 0.000446529957656, No Iterations 4
smoothSolver:  Solving for Uz, Initial residual = 0.00110649171699, Final residual = 0.000100213821771, No Iterations 4
GAMG:  Solving for p, Initial residual = 0.000709690400761, Final residual = 1.94969793913e-05, No Iterations 6
time step continuity errors : sum local = 0.00050807364957, global = 3.68464003029e-05, cumulative = 10.1058672096
ExecutionTime = 5.64 s  ClockTime = 6 s

Time = 123

smoothSolver:  Solving for Ux, Initial residual = 0.00412237107512, Final residual = 0.000345384068075, No Iterations 4
smoothSolver:  Solving for Uy, Initial residual = 0.005314109599, Final residual = 0.000445268549601, No Iterations 4
smoothSolver:  Solving for Uz, Initial residual = 0.00109123887183, Final residual = 9.92042831547e-05, No Iterations 4
GAMG:  Solving for p, Initial residual = 0.000697576468654, Final residual = 1.57321993363e-05, No Iterations 6
time step continuity errors : sum local = 0.000406039743373, global = 2.93487479084e-05, cumulative = 10.1058965583
ExecutionTime = 5.68 s  ClockTime = 6 s

Time = 124

smoothSolver:  Solving for Ux, Initial residual = 0.0040233251083, Final residual = 0.000338600438137, No Iterations 4
smoothSolver:  Solving for Uy, Initial residual = 0.00530614711388, Final residual = 0.00044352688518, No Iterations 4
[...]
smoothSolver:  Solving for Uy, Initial residual = 0.000109210469921, Final residual = 9.82619544825e-06, No Iterations 4
smoothSolver:  Solving for Uz, Initial residual = 1.05987976405e-05, Final residual = 5.76215637338e-06, No Iterations 1
GAMG:  Solving for p, Initial residual = 1.53620023406e-06, Final residual = 6.92432164005e-07, No Iterations 2
time step continuity errors : sum local = 6.68861150701e-06, global = 1.08553772757e-07, cumulative = 10.1073405483
ExecutionTime = 42.71 s  ClockTime = 43 s

Time = 943

smoothSolver:  Solving for Ux, Initial residual = 6.21863974113e-05, Final residual = 8.67324801356e-06, No Iterations 3
smoothSolver:  Solving for Uy, Initial residual = 0.000108861720128, Final residual = 9.79453663829e-06, No Iterations 4
smoothSolver:  Solving for Uz, Initial residual = 1.05776820761e-05, Final residual = 5.75067232235e-06, No Iterations 1
GAMG:  Solving for p, Initial residual = 1.60517659517e-06, Final residual = 7.94690696909e-07, No Iterations 1
time step continuity errors : sum local = 7.6762776297e-06, global = 1.43344392975e-07, cumulative = 10.1073406916
ExecutionTime = 42.75 s  ClockTime = 43 s

Time = 944

smoothSolver:  Solving for Ux, Initial residual = 6.20735951201e-05, Final residual = 8.66123320152e-06, No Iterations 3
smoothSolver:  Solving for Uy, Initial residual = 0.000108727149462, Final residual = 9.78301625483e-06, No Iterations 4
smoothSolver:  Solving for Uz, Initial residual = 1.05547907448e-05, Final residual = 5.73830408078e-06, No Iterations 1
GAMG:  Solving for p, Initial residual = 1.49574268271e-06, Final residual = 8.25880096426e-07, No Iterations 2
time step continuity errors : sum local = 7.97744623068e-06, global = 8.7711242945e-08, cumulative = 10.1073407793
ExecutionTime = 42.79 s  ClockTime = 43 s

Time = 945

smoothSolver:  Solving for Ux, Initial residual = 6.23826937295e-05, Final residual = 8.65212608153e-06, No Iterations 3
smoothSolver:  Solving for Uy, Initial residual = 0.000108400019574, Final residual = 9.75270693354e-06, No Iterations 4
smoothSolver:  Solving for Uz, Initial residual = 1.05337132043e-05, Final residual = 5.7268045776e-06, No Iterations 1
GAMG:  Solving for p, Initial residual = 1.63852703596e-06, Final residual = 8.39808771681e-07, No Iterations 1
time step continuity errors : sum local = 8.11182108254e-06, global = 1.35164892645e-07, cumulative = 10.1073409145
ExecutionTime = 42.83 s  ClockTime = 43 s

Time = 946

smoothSolver:  Solving for Ux, Initial residual = 6.17429555971e-05, Final residual = 8.62642839307e-06, No Iterations 3
smoothSolver:  Solving for Uy, Initial residual = 0.000108274877732, Final residual = 9.74221039227e-06, No Iterations 4
smoothSolver:  Solving for Uz, Initial residual = 1.05109372214e-05, Final residual = 5.71450704396e-06, No Iterations 1
GAMG:  Solving for p, Initial residual = 1.52169358763e-06, Final residual = 6.86436514655e-07, No Iterations 2
time step continuity errors : sum local = 6.63029320731e-06, global = 1.06729405587e-07, cumulative = 10.1073410212
ExecutionTime = 42.88 s  ClockTime = 43 s

Time = 947

smoothSolver:  Solving for Ux, Initial residual = 6.1841370924e-05, Final residual = 8.61629669217e-06, No Iterations 3
smoothSolver:  Solving for Uy, Initial residual = 0.000107929394539, Final residual = 9.71084485539e-06, No Iterations 4
smoothSolver:  Solving for Uz, Initial residual = 1.04900426985e-05, Final residual = 5.70314268236e-06, No Iterations 1
GAMG:  Solving for p, Initial residual = 1.59049550829e-06, Final residual = 7.87918005717e-07, No Iterations 1
time step continuity errors : sum local = 7.61039711221e-06, global = 1.4083332375e-07, cumulative = 10.1073411621
ExecutionTime = 42.92 s  ClockTime = 43 s

Time = 948

smoothSolver:  Solving for Ux, Initial residual = 6.17680014973e-05, Final residual = 8.5898423353e-06, No Iterations 3
smoothSolver:  Solving for Uy, Initial residual = 0.000107796373951, Final residual = 9.69945666712e-06, No Iterations 4
smoothSolver:  Solving for Uz, Initial residual = 1.0467381155e-05, Final residual = 5.69089796091e-06, No Iterations 1
GAMG:  Solving for p, Initial residual = 1.48194458917e-06, Final residual = 8.16527384803e-07, No Iterations 2
time step continuity errors : sum local = 7.88663071362e-06, global = 8.63658626747e-08, cumulative = 10.1073412484
ExecutionTime = 42.96 s  ClockTime = 43 s

Time = 949

smoothSolver:  Solving for Ux, Initial residual = 6.18485714521e-05, Final residual = 8.57691525014e-06, No Iterations 3
smoothSolver:  Solving for Uy, Initial residual = 0.000107471911261, Final residual = 9.66940225123e-06, No Iterations 4
smoothSolver:  Solving for Uz, Initial residual = 1.04465280387e-05, Final residual = 5.67951941247e-06, No Iterations 1
GAMG:  Solving for p, Initial residual = 1.62292578398e-06, Final residual = 8.3166583528e-07, No Iterations 1
time step continuity errors : sum local = 8.03268767289e-06, global = 1.32713371262e-07, cumulative = 10.1073413811
ExecutionTime = 43 s  ClockTime = 43 s

Time = 950

smoothSolver:  Solving for Ux, Initial residual = 6.18061784432e-05, Final residual = 8.56121270286e-06, No Iterations 3
smoothSolver:  Solving for Uy, Initial residual = 0.00010734813004, Final residual = 9.6590163677e-06, No Iterations 4
smoothSolver:  Solving for Uz, Initial residual = 1.0423979523e-05, Final residual = 5.66734532349e-06, No Iterations 1
GAMG:  Solving for p, Initial residual = 1.50716436991e-06, Final residual = 6.80409159075e-07, No Iterations 2
time step continuity errors : sum local = 6.57168419171e-06, global = 1.04718852256e-07, cumulative = 10.1073414859
ExecutionTime = 43.04 s  ClockTime = 43 s

Time = 951

smoothSolver:  Solving for Ux, Initial residual = 6.15041354366e-05, Final residual = 8.54787096833e-06, No Iterations 3
smoothSolver:  Solving for Uy, Initial residual = 0.000107006100961, Final residual = 9.62796113593e-06, No Iterations 4
smoothSolver:  Solving for Uz, Initial residual = 1.04033039067e-05, Final residual = 5.65609892891e-06, No Iterations 1
GAMG:  Solving for p, Initial residual = 1.57595476411e-06, Final residual = 7.81237170825e-07, No Iterations 1
time step continuity errors : sum local = 7.54542131723e-06, global = 1.38036765248e-07, cumulative = 10.1073416239
ExecutionTime = 43.09 s  ClockTime = 44 s

Time = 952

smoothSolver:  Solving for Ux, Initial residual = 6.12161364187e-05, Final residual = 8.52706399974e-06, No Iterations 3
smoothSolver:  Solving for Uy, Initial residual = 0.000106874690362, Final residual = 9.61671094236e-06, No Iterations 4
smoothSolver:  Solving for Uz, Initial residual = 1.03808701281e-05, Final residual = 5.64397815306e-06, No Iterations 1
GAMG:  Solving for p, Initial residual = 1.46821087362e-06, Final residual = 8.06466686489e-07, No Iterations 2
time step continuity errors : sum local = 7.78899802494e-06, global = 8.49439050185e-08, cumulative = 10.1073417088
ExecutionTime = 43.13 s  ClockTime = 44 s

Time = 953

smoothSolver:  Solving for Ux, Initial residual = 6.14033599078e-05, Final residual = 8.51849730625e-06, No Iterations 3
smoothSolver:  Solving for Uy, Initial residual = 0.000106552756581, Final residual = 9.58689939455e-06, No Iterations 4
smoothSolver:  Solving for Uz, Initial residual = 1.03602432646e-05, Final residual = 5.63272124172e-06, No Iterations 1
GAMG:  Solving for p, Initial residual = 1.60717025304e-06, Final residual = 8.23447524437e-07, No Iterations 1
time step continuity errors : sum local = 7.95284608454e-06, global = 1.30069515464e-07, cumulative = 10.1073418389
ExecutionTime = 43.17 s  ClockTime = 44 s

Time = 954

smoothSolver:  Solving for Ux, Initial residual = 6.12682432468e-05, Final residual = 8.49390023593e-06, No Iterations 3
smoothSolver:  Solving for Uy, Initial residual = 0.000106430517401, Final residual = 9.57664062429e-06, No Iterations 4
smoothSolver:  Solving for Uz, Initial residual = 1.03379204237e-05, Final residual = 5.62067028346e-06, No Iterations 1
GAMG:  Solving for p, Initial residual = 1.49250909425e-06, Final residual = 6.74552907388e-07, No Iterations 2
time step continuity errors : sum local = 6.51474305642e-06, global = 1.02592755136e-07, cumulative = 10.1073419415
ExecutionTime = 43.22 s  ClockTime = 44 s

Time = 955

smoothSolver:  Solving for Ux, Initial residual = 6.11192187691e-05, Final residual = 8.48670400425e-06, No Iterations 3
smoothSolver:  Solving for Uy, Initial residual = 0.000106091828921, Final residual = 9.54588285711e-06, No Iterations 4
smoothSolver:  Solving for Uz, Initial residual = 1.03174658103e-05, Final residual = 5.60954320931e-06, No Iterations 1
GAMG:  Solving for p, Initial residual = 1.56149971488e-06, Final residual = 7.75004712743e-07, No Iterations 1
time step continuity errors : sum local = 7.48479303674e-06, global = 1.35130237808e-07, cumulative = 10.1073420766
ExecutionTime = 43.26 s  ClockTime = 44 s

Time = 956

smoothSolver:  Solving for Ux, Initial residual = 6.10906310026e-05, Final residual = 8.48534207704e-06, No Iterations 3
smoothSolver:  Solving for Uy, Initial residual = 0.000105962292756, Final residual = 9.53479703348e-06, No Iterations 4
smoothSolver:  Solving for Uz, Initial residual = 1.02952597552e-05, Final residual = 5.59754541196e-06, No Iterations 1
GAMG:  Solving for p, Initial residual = 1.4545873302e-06, Final residual = 7.96528196855e-07, No Iterations 2
time step continuity errors : sum local = 7.69256701637e-06, global = 8.34966900833e-08, cumulative = 10.1073421601
ExecutionTime = 43.31 s  ClockTime = 44 s

Time = 957

smoothSolver:  Solving for Ux, Initial residual = 6.13999098777e-05, Final residual = 8.46511084853e-06, No Iterations 3
smoothSolver:  Solving for Uy, Initial residual = 0.000105642731416, Final residual = 9.50520794948e-06, No Iterations 4
smoothSolver:  Solving for Uz, Initial residual = 1.02748590653e-05, Final residual = 5.58641116733e-06, No Iterations 1
GAMG:  Solving for p, Initial residual = 1.5915059738e-06, Final residual = 8.15607462313e-07, No Iterations 1
time step continuity errors : sum local = 7.87667670458e-06, global = 1.27428909626e-07, cumulative = 10.1073422876
ExecutionTime = 43.35 s  ClockTime = 44 s

Time = 958

smoothSolver:  Solving for Ux, Initial residual = 6.07525346675e-05, Final residual = 8.44613882959e-06, No Iterations 3
smoothSolver:  Solving for Uy, Initial residual = 0.000105522164948, Final residual = 9.49509723548e-06, No Iterations 4
smoothSolver:  Solving for Uz, Initial residual = 1.02527623003e-05, Final residual = 5.5744825521e-06, No Iterations 1
GAMG:  Solving for p, Initial residual = 1.47799984685e-06, Final residual = 6.6893495999e-07, No Iterations 2
time step continuity errors : sum local = 6.46011817831e-06, global = 1.00521062442e-07, cumulative = 10.1073423881
ExecutionTime = 43.4 s  ClockTime = 44 s

Time = 959

smoothSolver:  Solving for Ux, Initial residual = 6.08551223813e-05, Final residual = 8.42066323095e-06, No Iterations 3
smoothSolver:  Solving for Uy, Initial residual = 0.000105186629544, Final residual = 9.46461005518e-06, No Iterations 4
smoothSolver:  Solving for Uz, Initial residual = 1.02325283467e-05, Final residual = 5.56347485264e-06, No Iterations 1
GAMG:  Solving for p, Initial residual = 1.54717938024e-06, Final residual = 7.68929241965e-07, No Iterations 1
time step continuity errors : sum local = 7.42569731231e-06, global = 1.32350931424e-07, cumulative = 10.1073425204
ExecutionTime = 43.44 s  ClockTime = 44 s

Time = 960

smoothSolver:  Solving for Ux, Initial residual = 6.05576855902e-05, Final residual = 8.41556593136e-06, No Iterations 3
smoothSolver:  Solving for Uy, Initial residual = 0.000105059002977, Final residual = 9.45370079325e-06, No Iterations 4
smoothSolver:  Solving for Uz, Initial residual = 1.02105485918e-05, Final residual = 5.55159908337e-06, No Iterations 1
GAMG:  Solving for p, Initial residual = 1.44109417615e-06, Final residual = 7.87085885839e-07, No Iterations 2
time step continuity errors : sum local = 7.60094843362e-06, global = 8.20890519423e-08, cumulative = 10.1073426025
ExecutionTime = 43.49 s  ClockTime = 44 s

Time = 961

smoothSolver:  Solving for Ux, Initial residual = 6.05621708351e-05, Final residual = 8.39255251411e-06, No Iterations 3
smoothSolver:  Solving for Uy, Initial residual = 0.000104741752753, Final residual = 9.42432470505e-06, No Iterations 4
smoothSolver:  Solving for Uz, Initial residual = 1.01903713606e-05, Final residual = 5.540585547e-06, No Iterations 1
GAMG:  Solving for p, Initial residual = 1.57625533775e-06, Final residual = 8.08090827004e-07, No Iterations 1
time step continuity errors : sum local = 7.80364912811e-06, global = 1.24962641386e-07, cumulative = 10.1073427275
ExecutionTime = 43.53 s  ClockTime = 44 s

Time = 962

smoothSolver:  Solving for Ux, Initial residual = 6.05974984505e-05, Final residual = 8.38287818582e-06, No Iterations 3
smoothSolver:  Solving for Uy, Initial residual = 0.000104622819858, Final residual = 9.41435854229e-06, No Iterations 4
smoothSolver:  Solving for Uz, Initial residual = 1.01684989347e-05, Final residual = 5.52877779478e-06, No Iterations 1
GAMG:  Solving for p, Initial residual = 1.46380338317e-06, Final residual = 6.63459051236e-07, No Iterations 2
time step continuity errors : sum local = 6.40687908159e-06, global = 9.85824198873e-08, cumulative = 10.1073428261
ExecutionTime = 43.57 s  ClockTime = 44 s

Time = 963

smoothSolver:  Solving for Ux, Initial residual = 6.03130084273e-05, Final residual = 8.36702652722e-06, No Iterations 3
smoothSolver:  Solving for Uy, Initial residual = 0.00010429033088, Final residual = 9.38413572287e-06, No Iterations 4
smoothSolver:  Solving for Uz, Initial residual = 1.01484816208e-05, Final residual = 5.51788702855e-06, No Iterations 1
GAMG:  Solving for p, Initial residual = 1.53309109604e-06, Final residual = 7.62808045239e-07, No Iterations 1
time step continuity errors : sum local = 7.36617580173e-06, global = 1.29759986306e-07, cumulative = 10.1073429558
ExecutionTime = 43.62 s  ClockTime = 44 s

Time = 964

smoothSolver:  Solving for Ux, Initial residual = 6.01982135335e-05, Final residual = 8.35069593908e-06, No Iterations 3
smoothSolver:  Solving for Uy, Initial residual = 0.000104164547362, Final residual = 9.37339046624e-06, No Iterations 4
smoothSolver:  Solving for Uz, Initial residual = 1.01267259025e-05, Final residual = 5.50613061572e-06, No Iterations 1
GAMG:  Solving for p, Initial residual = 1.4278156922e-06, Final residual = 7.77968943633e-07, No Iterations 2
time step continuity errors : sum local = 7.51249126738e-06, global = 8.07583438608e-08, cumulative = 10.1073430366
ExecutionTime = 43.67 s  ClockTime = 44 s

Time = 965

smoothSolver:  Solving for Ux, Initial residual = 6.03509070249e-05, Final residual = 8.34036389365e-06, No Iterations 3
smoothSolver:  Solving for Uy, Initial residual = 0.000103849652277, Final residual = 9.34423904289e-06, No Iterations 4
smoothSolver:  Solving for Uz, Initial residual = 1.01067663132e-05, Final residual = 5.49523485156e-06, No Iterations 1
GAMG:  Solving for p, Initial residual = 1.5611817273e-06, Final residual = 8.00651613629e-07, No Iterations 1
time step continuity errors : sum local = 7.73138653513e-06, global = 1.22601897481e-07, cumulative = 10.1073431592
ExecutionTime = 43.71 s  ClockTime = 44 s

Time = 966

smoothSolver:  Solving for Ux, Initial residual = 6.04109163364e-05, Final residual = 8.31318535007e-06, No Iterations 3
smoothSolver:  Solving for Uy, Initial residual = 0.000103732331758, Final residual = 9.3344027999e-06, No Iterations 4
smoothSolver:  Solving for Uz, Initial residual = 1.00851144074e-05, Final residual = 5.48354490566e-06, No Iterations 1
GAMG:  Solving for p, Initial residual = 1.44984857587e-06, Final residual = 6.57870149493e-07, No Iterations 2
time step continuity errors : sum local = 6.3525623617e-06, global = 9.67156263053e-08, cumulative = 10.1073432559
ExecutionTime = 43.76 s  ClockTime = 44 s

Time = 967

smoothSolver:  Solving for Ux, Initial residual = 6.00253999091e-05, Final residual = 8.30388362932e-06, No Iterations 3
smoothSolver:  Solving for Uy, Initial residual = 0.000103402794123, Final residual = 9.30444663626e-06, No Iterations 4
smoothSolver:  Solving for Uz, Initial residual = 1.0065308254e-05, Final residual = 5.47276835992e-06, No Iterations 1
GAMG:  Solving for p, Initial residual = 1.51914997303e-06, Final residual = 7.56609657944e-07, No Iterations 1
time step continuity errors : sum local = 7.30592420599e-06, global = 1.27219843706e-07, cumulative = 10.1073433831
ExecutionTime = 43.8 s  ClockTime = 44 s

Time = 968

smoothSolver:  Solving for Ux, Initial residual = 6.01409165735e-05, Final residual = 8.28857388833e-06, No Iterations 3
smoothSolver:  Solving for Uy, Initial residual = 0.000103278786507, Final residual = 9.29385275114e-06, No Iterations 4
smoothSolver:  Solving for Uz, Initial residual = 1.00437719094e-05, Final residual = 5.46112934251e-06, No Iterations 1
GAMG:  Solving for p, Initial residual = 1.41468620694e-06, Final residual = 7.68963196132e-07, No Iterations 2
time step continuity errors : sum local = 7.42512628824e-06, global = 7.94285829234e-08, cumulative = 10.1073434625
ExecutionTime = 43.84 s  ClockTime = 44 s

Time = 969

smoothSolver:  Solving for Ux, Initial residual = 6.00427790022e-05, Final residual = 8.27637807133e-06, No Iterations 3
smoothSolver:  Solving for Uy, Initial residual = 0.000102966258118, Final residual = 9.26492929595e-06, No Iterations 4
smoothSolver:  Solving for Uz, Initial residual = 1.00240255706e-05, Final residual = 5.45034902815e-06, No Iterations 1
GAMG:  Solving for p, Initial residual = 1.54642610965e-06, Final residual = 7.93213497749e-07, No Iterations 1
time step continuity errors : sum local = 7.65915140434e-06, global = 1.20265274889e-07, cumulative = 10.1073435828
ExecutionTime = 43.89 s  ClockTime = 44 s

Time = 970

smoothSolver:  Solving for Ux, Initial residual = 5.97944840217e-05, Final residual = 8.27091119335e-06, No Iterations 3
smoothSolver:  Solving for Uy, Initial residual = 0.000102850439465, Final residual = 9.25521812427e-06, No Iterations 4
smoothSolver:  Solving for Uz, Initial residual = 1.00025892253e-05, Final residual = 5.43877563782e-06, No Iterations 1
GAMG:  Solving for p, Initial residual = 1.4360674208e-06, Final residual = 6.5237295677e-07, No Iterations 2
time step continuity errors : sum local = 6.29914445785e-06, global = 9.48420108706e-08, cumulative = 10.1073436777
ExecutionTime = 43.93 s  ClockTime = 44 s

Time = 971

smoothSolver:  Solving for Ux, Initial residual = 5.96838912056e-05, Final residual = 8.2544479393e-06, No Iterations 3
smoothSolver:  Solving for Uy, Initial residual = 0.000102523925213, Final residual = 9.2255329131e-06, No Iterations 4
smoothSolver:  Solving for Uz, Initial residual = 9.98299166141e-06, Final residual = 9.98299166141e-06, No Iterations 0
GAMG:  Solving for p, Initial residual = 3.1358414525e-05, Final residual = 7.88877687863e-07, No Iterations 10
time step continuity errors : sum local = 7.61713668866e-06, global = 6.88656481814e-08, cumulative = 10.1073437465
ExecutionTime = 43.97 s  ClockTime = 44 s

Time = 972

smoothSolver:  Solving for Ux, Initial residual = 5.98503186594e-05, Final residual = 8.23380408445e-06, No Iterations 3
smoothSolver:  Solving for Uy, Initial residual = 7.02220069357e-05, Final residual = 6.23105870874e-06, No Iterations 4
smoothSolver:  Solving for Uz, Initial residual = 1.01508351762e-05, Final residual = 5.51644517777e-06, No Iterations 1
GAMG:  Solving for p, Initial residual = 1.87935931096e-05, Final residual = 9.94098735026e-07, No Iterations 8
time step continuity errors : sum local = 9.59849682685e-06, global = 3.992465443e-08, cumulative = 10.1073437864
ExecutionTime = 44.02 s  ClockTime = 44 s


SIMPLE solution converged in 972 iterations

    writing object shearStress
End

Finalising parallel run
