/*---------------------------------------------------------------------------*\
  =========                 |
  \\      /  F ield         | OpenFOAM: The Open Source CFD Toolbox
   \\    /   O peration     | Website:  https://openfoam.org
    \\  /    A nd           | Version:  9
     \\/     M anipulation  |
\*---------------------------------------------------------------------------*/
Build  : 9-b456138dc4bc
Exec   : simpleFoam -parallel
Date   : Apr 12 2022
Time   : 12:20:41
Host   : "KORIN-LAB"
PID    : 3318
I/O    : uncollated
Case   : /home/colin/OpenFOAM/colin-9/run/wsl/wedge_needle/45_temp/90_needle_layer
nProcs : 6
Slaves : 
5
(
"KORIN-LAB.3319"
"KORIN-LAB.3320"
"KORIN-LAB.3321"
"KORIN-LAB.3322"
"KORIN-LAB.3323"
)

Pstream initialised with:
    floatTransfer      : 0
    nProcsSimpleSum    : 0
    commsType          : nonBlocking
    polling iterations : 0
sigFpe : Enabling floating point exception trapping (FOAM_SIGFPE).
fileModificationChecking : Monitoring run-time modified files using timeStampMaster (fileModificationSkew 10)
allowSystemOperations : Allowing user-supplied system call operations

// * * * * * * * * * * * * * * * * * * * * * * * * * * * * * * * * * * * * * //
Create time

Create mesh for time = 0


SIMPLE: Convergence criteria found
        p: tolerance 0.001
        U: tolerance 0.0001
        "(k|epsilon|omega|f|v2)": tolerance 0.0001

Reading field p

Reading field U

Reading/calculating face flux field phi

Selecting incompressible transport model powerLaw
Selecting turbulence model type laminar
Selecting laminar stress model Stokes
No MRF models present

No fvModels present
No fvConstraints present

Starting time loop

wallShearStress wallShearStress:
    processing all wall patches

Time = 1

smoothSolver:  Solving for Ux, Initial residual = 0.837638448123, Final residual = 0.0676833263413, No Iterations 2
smoothSolver:  Solving for Uy, Initial residual = 0.999999999998, Final residual = 0.0572562251192, No Iterations 2
smoothSolver:  Solving for Uz, Initial residual = 1, Final residual = 0.0816529803376, No Iterations 2
GAMG:  Solving for p, Initial residual = 0.999999999986, Final residual = 0.0422122095374, No Iterations 32
time step continuity errors : sum local = 0.0219270104399, global = -0.000279621383787, cumulative = -0.000279621383787
ExecutionTime = 0.12 s  ClockTime = 0 s

Time = 2

smoothSolver:  Solving for Ux, Initial residual = 0.476942993302, Final residual = 0.0260777325501, No Iterations 4
smoothSolver:  Solving for Uy, Initial residual = 0.900116473092, Final residual = 0.0784411360898, No Iterations 4
smoothSolver:  Solving for Uz, Initial residual = 0.781840034102, Final residual = 0.0663674895359, No Iterations 4
GAMG:  Solving for p, Initial residual = 0.00645286270596, Final residual = 0.000229142424005, No Iterations 11
time step continuity errors : sum local = 27.0958131871, global = 0.4104494781, cumulative = 0.410169856717
ExecutionTime = 0.18 s  ClockTime = 0 s

Time = 3

smoothSolver:  Solving for Ux, Initial residual = 0.580679444822, Final residual = 0.0298418574574, No Iterations 3
smoothSolver:  Solving for Uy, Initial residual = 0.0668016721147, Final residual = 0.0056472746146, No Iterations 4
smoothSolver:  Solving for Uz, Initial residual = 0.0521545933498, Final residual = 0.00441526691764, No Iterations 4
GAMG:  Solving for p, Initial residual = 0.0109432947273, Final residual = 0.000389880704757, No Iterations 14
time step continuity errors : sum local = 13.0383222782, global = 0.331936199188, cumulative = 0.742106055905
ExecutionTime = 0.25 s  ClockTime = 1 s

Time = 4

smoothSolver:  Solving for Ux, Initial residual = 0.0266992260083, Final residual = 0.00160246648348, No Iterations 3
smoothSolver:  Solving for Uy, Initial residual = 0.0426382762726, Final residual = 0.00362840034368, No Iterations 4
smoothSolver:  Solving for Uz, Initial residual = 0.00873954374439, Final residual = 0.00061813298036, No Iterations 4
GAMG:  Solving for p, Initial residual = 0.502154231602, Final residual = 0.0174224986601, No Iterations 8
time step continuity errors : sum local = 22.9748252603, global = 0.398124141033, cumulative = 1.14023019694
ExecutionTime = 0.33 s  ClockTime = 1 s

Time = 5

smoothSolver:  Solving for Ux, Initial residual = 0.00723501624575, Final residual = 0.000544644962106, No Iterations 3
smoothSolver:  Solving for Uy, Initial residual = 0.014247213372, Final residual = 0.00110642408471, No Iterations 4
smoothSolver:  Solving for Uz, Initial residual = 0.0386334222459, Final residual = 0.00321089787824, No Iterations 4
GAMG:  Solving for p, Initial residual = 0.0293025677178, Final residual = 0.000722235120302, No Iterations 7
time step continuity errors : sum local = 7.91270540337, global = -0.182333305296, cumulative = 0.957896891641
ExecutionTime = 0.4 s  ClockTime = 1 s

Time = 6

smoothSolver:  Solving for Ux, Initial residual = 0.004290306629, Final residual = 0.000202905126579, No Iterations 3
smoothSolver:  Solving for Uy, Initial residual = 0.113570867685, Final residual = 0.009616873548, No Iterations 4
smoothSolver:  Solving for Uz, Initial residual = 0.112881951509, Final residual = 0.00953807828265, No Iterations 4
GAMG:  Solving for p, Initial residual = 0.0179966586734, Final residual = 0.000615462770296, No Iterations 15
time step continuity errors : sum local = 4.97834171878, global = -0.0015464401157, cumulative = 0.956350451526
ExecutionTime = 0.47 s  ClockTime = 1 s

Time = 7

smoothSolver:  Solving for Ux, Initial residual = 0.00434431585078, Final residual = 0.000199213713208, No Iterations 3
smoothSolver:  Solving for Uy, Initial residual = 0.172257393337, Final residual = 0.0147303594571, No Iterations 4
smoothSolver:  Solving for Uz, Initial residual = 0.133199608516, Final residual = 0.0111172534444, No Iterations 4
GAMG:  Solving for p, Initial residual = 0.065004588693, Final residual = 0.00254794199429, No Iterations 8
time step continuity errors : sum local = 10.8463334752, global = 0.0359411195358, cumulative = 0.992291571061
ExecutionTime = 0.52 s  ClockTime = 1 s

Time = 8

smoothSolver:  Solving for Ux, Initial residual = 0.0041217468382, Final residual = 0.000227706004519, No Iterations 3
smoothSolver:  Solving for Uy, Initial residual = 0.0439761321544, Final residual = 0.00370537116892, No Iterations 4
smoothSolver:  Solving for Uz, Initial residual = 0.0372284647386, Final residual = 0.00301888323522, No Iterations 4
GAMG:  Solving for p, Initial residual = 0.20766108367, Final residual = 0.00930968357322, No Iterations 6
time step continuity errors : sum local = 10.0451746114, global = 0.131056936577, cumulative = 1.12334850764
ExecutionTime = 0.59 s  ClockTime = 1 s

Time = 9

smoothSolver:  Solving for Ux, Initial residual = 0.00318048709801, Final residual = 0.000214726261411, No Iterations 3
smoothSolver:  Solving for Uy, Initial residual = 0.0238812693773, Final residual = 0.00195713522154, No Iterations 4
smoothSolver:  Solving for Uz, Initial residual = 0.0373425146024, Final residual = 0.00308662359766, No Iterations 4
GAMG:  Solving for p, Initial residual = 0.0590436903821, Final residual = 0.00279380684533, No Iterations 6
time step continuity errors : sum local = 5.33280435033, global = 0.0426860929242, cumulative = 1.16603460056
ExecutionTime = 0.68 s  ClockTime = 1 s

Time = 10

smoothSolver:  Solving for Ux, Initial residual = 0.00229410649145, Final residual = 0.000188925775766, No Iterations 3
smoothSolver:  Solving for Uy, Initial residual = 0.0744608282586, Final residual = 0.00635097092138, No Iterations 4
smoothSolver:  Solving for Uz, Initial residual = 0.142208071063, Final residual = 0.0121085422081, No Iterations 4
GAMG:  Solving for p, Initial residual = 0.0200994227801, Final residual = 0.000753358885063, No Iterations 6
time step continuity errors : sum local = 2.10587147606, global = 0.0491712303754, cumulative = 1.21520583094
ExecutionTime = 0.73 s  ClockTime = 1 s

Time = 11

smoothSolver:  Solving for Ux, Initial residual = 0.00166049174507, Final residual = 0.000140741126615, No Iterations 3
smoothSolver:  Solving for Uy, Initial residual = 0.421388242854, Final residual = 0.0363531130461, No Iterations 4
smoothSolver:  Solving for Uz, Initial residual = 0.0623831112254, Final residual = 0.00533632044013, No Iterations 4
GAMG:  Solving for p, Initial residual = 0.0295968688354, Final residual = 0.00104087089366, No Iterations 8
time step continuity errors : sum local = 2.39033627605, global = 0.013265742337, cumulative = 1.22847157328
ExecutionTime = 0.8 s  ClockTime = 1 s

Time = 12

smoothSolver:  Solving for Ux, Initial residual = 0.00130832974858, Final residual = 0.000115417337758, No Iterations 3
smoothSolver:  Solving for Uy, Initial residual = 0.0670903079928, Final residual = 0.00572493217744, No Iterations 4
smoothSolver:  Solving for Uz, Initial residual = 0.0278581796518, Final residual = 0.0023886633172, No Iterations 4
GAMG:  Solving for p, Initial residual = 0.0636714496679, Final residual = 0.00212444925119, No Iterations 8
time step continuity errors : sum local = 2.24882857972, global = 0.00365574719805, cumulative = 1.23212732047
ExecutionTime = 0.87 s  ClockTime = 1 s

Time = 13

smoothSolver:  Solving for Ux, Initial residual = 0.00110530679502, Final residual = 0.000108135219429, No Iterations 3
smoothSolver:  Solving for Uy, Initial residual = 0.0272317625465, Final residual = 0.00225194834094, No Iterations 4
smoothSolver:  Solving for Uz, Initial residual = 0.014940326311, Final residual = 0.00126264993747, No Iterations 4
GAMG:  Solving for p, Initial residual = 0.349855944384, Final residual = 0.0155355938908, No Iterations 6
time step continuity errors : sum local = 2.22643149215, global = -0.000825051826529, cumulative = 1.23130226865
ExecutionTime = 0.95 s  ClockTime = 1 s

Time = 14

smoothSolver:  Solving for Ux, Initial residual = 0.00106144978625, Final residual = 5.39404068894e-05, No Iterations 4
smoothSolver:  Solving for Uy, Initial residual = 0.0372876040804, Final residual = 0.00310358245392, No Iterations 4
smoothSolver:  Solving for Uz, Initial residual = 0.0128474236609, Final residual = 0.00106942285196, No Iterations 4
GAMG:  Solving for p, Initial residual = 0.0719653513958, Final residual = 0.00221797619797, No Iterations 6
time step continuity errors : sum local = 0.999896006809, global = -0.00496129155261, cumulative = 1.22634097709
ExecutionTime = 1 s  ClockTime = 1 s

Time = 15

smoothSolver:  Solving for Ux, Initial residual = 0.00102305981621, Final residual = 5.23053964961e-05, No Iterations 4
smoothSolver:  Solving for Uy, Initial residual = 0.0925286479309, Final residual = 0.00778254507757, No Iterations 4
smoothSolver:  Solving for Uz, Initial residual = 0.0156630431779, Final residual = 0.00130826843623, No Iterations 4
GAMG:  Solving for p, Initial residual = 0.0540796204835, Final residual = 0.00176362819439, No Iterations 6
time step continuity errors : sum local = 0.876294907114, global = -0.00618847579897, cumulative = 1.2201525013
ExecutionTime = 1.08 s  ClockTime = 1 s

Time = 16

smoothSolver:  Solving for Ux, Initial residual = 0.00101781204026, Final residual = 5.19976363459e-05, No Iterations 4
smoothSolver:  Solving for Uy, Initial residual = 0.155271980209, Final residual = 0.0128683183724, No Iterations 4
smoothSolver:  Solving for Uz, Initial residual = 0.016932804578, Final residual = 0.00140964706137, No Iterations 4
GAMG:  Solving for p, Initial residual = 0.0663326016417, Final residual = 0.00151887022628, No Iterations 8
time step continuity errors : sum local = 0.58089243384, global = -0.000953960086184, cumulative = 1.21919854121
ExecutionTime = 1.13 s  ClockTime = 1 s

Time = 17

smoothSolver:  Solving for Ux, Initial residual = 0.000966999535119, Final residual = 5.09016246392e-05, No Iterations 4
smoothSolver:  Solving for Uy, Initial residual = 0.0628771329101, Final residual = 0.00510108874153, No Iterations 4
smoothSolver:  Solving for Uz, Initial residual = 0.0139407276559, Final residual = 0.00114336706596, No Iterations 4
GAMG:  Solving for p, Initial residual = 0.20422670499, Final residual = 0.00610589943422, No Iterations 6
time step continuity errors : sum local = 0.67747555321, global = 0.00122510734675, cumulative = 1.22042364856
ExecutionTime = 1.19 s  ClockTime = 1 s

Time = 18

smoothSolver:  Solving for Ux, Initial residual = 0.000867358264859, Final residual = 4.92854385381e-05, No Iterations 4
smoothSolver:  Solving for Uy, Initial residual = 0.0523957391889, Final residual = 0.00425363445882, No Iterations 4
smoothSolver:  Solving for Uz, Initial residual = 0.0123138091795, Final residual = 0.00101244792895, No Iterations 4
GAMG:  Solving for p, Initial residual = 0.110870588126, Final residual = 0.0027783544107, No Iterations 6
time step continuity errors : sum local = 0.418969285281, global = 0.00107629090066, cumulative = 1.22149993946
ExecutionTime = 1.27 s  ClockTime = 2 s

Time = 19

smoothSolver:  Solving for Ux, Initial residual = 0.000772907674422, Final residual = 4.69859273245e-05, No Iterations 4
smoothSolver:  Solving for Uy, Initial residual = 0.0844105413286, Final residual = 0.00705882487056, No Iterations 4
smoothSolver:  Solving for Uz, Initial residual = 0.0119001741029, Final residual = 0.00100188081645, No Iterations 4
GAMG:  Solving for p, Initial residual = 0.0550755220641, Final residual = 0.00238354808419, No Iterations 5
time step continuity errors : sum local = 0.517691580211, global = 0.0027784608725, cumulative = 1.22427840033
ExecutionTime = 1.33 s  ClockTime = 2 s

Time = 20

smoothSolver:  Solving for Ux, Initial residual = 0.000693639527451, Final residual = 4.45438456854e-05, No Iterations 4
smoothSolver:  Solving for Uy, Initial residual = 0.091364014802, Final residual = 0.00767145364509, No Iterations 4
smoothSolver:  Solving for Uz, Initial residual = 0.0107880666399, Final residual = 0.000923332855394, No Iterations 4
GAMG:  Solving for p, Initial residual = 0.0453133603412, Final residual = 0.00218109072373, No Iterations 6
time step continuity errors : sum local = 0.469090739134, global = 0.0020018251344, cumulative = 1.22628022546
ExecutionTime = 1.38 s  ClockTime = 2 s

Time = 21

smoothSolver:  Solving for Ux, Initial residual = 0.000635745799003, Final residual = 4.23597599106e-05, No Iterations 4
smoothSolver:  Solving for Uy, Initial residual = 0.0564993738083, Final residual = 0.00469355903084, No Iterations 4
smoothSolver:  Solving for Uz, Initial residual = 0.00935557487037, Final residual = 0.000799794986158, No Iterations 4
GAMG:  Solving for p, Initial residual = 0.0477490468936, Final residual = 0.00181540798063, No Iterations 6
time step continuity errors : sum local = 0.328667681263, global = 0.000336081548403, cumulative = 1.22661630701
ExecutionTime = 1.45 s  ClockTime = 2 s

Time = 22

smoothSolver:  Solving for Ux, Initial residual = 0.000597690826645, Final residual = 4.0738495879e-05, No Iterations 4
smoothSolver:  Solving for Uy, Initial residual = 0.0406291229892, Final residual = 0.0033201793533, No Iterations 4
smoothSolver:  Solving for Uz, Initial residual = 0.00776963861601, Final residual = 0.000661682459839, No Iterations 4
GAMG:  Solving for p, Initial residual = 0.0636192731451, Final residual = 0.00151904624402, No Iterations 6
time step continuity errors : sum local = 0.177824456767, global = 0.000378609427973, cumulative = 1.22699491644
ExecutionTime = 1.51 s  ClockTime = 2 s

Time = 23

smoothSolver:  Solving for Ux, Initial residual = 0.000571622508488, Final residual = 3.95780377539e-05, No Iterations 4
smoothSolver:  Solving for Uy, Initial residual = 0.0371269983979, Final residual = 0.00304491369113, No Iterations 4
smoothSolver:  Solving for Uz, Initial residual = 0.00688418314022, Final residual = 0.000586803217785, No Iterations 4
GAMG:  Solving for p, Initial residual = 0.0774987663943, Final residual = 0.00188640942665, No Iterations 6
time step continuity errors : sum local = 0.146049398442, global = 0.000233887404363, cumulative = 1.22722880384
ExecutionTime = 1.58 s  ClockTime = 2 s

Time = 24

smoothSolver:  Solving for Ux, Initial residual = 0.000555875458242, Final residual = 3.87773924549e-05, No Iterations 4
smoothSolver:  Solving for Uy, Initial residual = 0.0396824313065, Final residual = 0.00325791091711, No Iterations 4
smoothSolver:  Solving for Uz, Initial residual = 0.00641515312367, Final residual = 0.000548608256486, No Iterations 4
GAMG:  Solving for p, Initial residual = 0.0836570697994, Final residual = 0.0033376495127, No Iterations 5
time step continuity errors : sum local = 0.205983803923, global = 0.000626209634905, cumulative = 1.22785501348
ExecutionTime = 1.64 s  ClockTime = 2 s

Time = 25

smoothSolver:  Solving for Ux, Initial residual = 0.000542486404121, Final residual = 3.81757146409e-05, No Iterations 4
smoothSolver:  Solving for Uy, Initial residual = 0.0395798380132, Final residual = 0.00321596153333, No Iterations 4
smoothSolver:  Solving for Uz, Initial residual = 0.00592054362422, Final residual = 0.000505080185797, No Iterations 4
GAMG:  Solving for p, Initial residual = 0.0814871067414, Final residual = 0.00313336038731, No Iterations 5
time step continuity errors : sum local = 0.181657479575, global = -0.000613173884024, cumulative = 1.2272418396
ExecutionTime = 1.72 s  ClockTime = 2 s

Time = 26

smoothSolver:  Solving for Ux, Initial residual = 0.000526349419099, Final residual = 3.74373301668e-05, No Iterations 4
smoothSolver:  Solving for Uy, Initial residual = 0.0356996722351, Final residual = 0.00286602192705, No Iterations 4
smoothSolver:  Solving for Uz, Initial residual = 0.00524082608775, Final residual = 0.000441242309607, No Iterations 4
GAMG:  Solving for p, Initial residual = 0.0748674256212, Final residual = 0.002857100825, No Iterations 5
time step continuity errors : sum local = 0.166549487437, global = -0.0004240678444, cumulative = 1.22681777175
ExecutionTime = 1.77 s  ClockTime = 2 s

Time = 27

smoothSolver:  Solving for Ux, Initial residual = 0.000506684575012, Final residual = 3.6453040228e-05, No Iterations 4
smoothSolver:  Solving for Uy, Initial residual = 0.0305924573384, Final residual = 0.0024138535082, No Iterations 4
smoothSolver:  Solving for Uz, Initial residual = 0.00466129246474, Final residual = 0.000388445561761, No Iterations 4
GAMG:  Solving for p, Initial residual = 0.0615720776525, Final residual = 0.00260024186971, No Iterations 5
time step continuity errors : sum local = 0.168908893896, global = -0.00035895911623, cumulative = 1.22645881263
ExecutionTime = 1.83 s  ClockTime = 2 s

Time = 28

smoothSolver:  Solving for Ux, Initial residual = 0.00048443392121, Final residual = 3.53213731652e-05, No Iterations 4
smoothSolver:  Solving for Uy, Initial residual = 0.0279281829954, Final residual = 0.00219759952157, No Iterations 4
smoothSolver:  Solving for Uz, Initial residual = 0.00430834847523, Final residual = 0.000359348547508, No Iterations 4
GAMG:  Solving for p, Initial residual = 0.0501717398013, Final residual = 0.00196026714227, No Iterations 5
time step continuity errors : sum local = 0.138084456098, global = -0.000410240087376, cumulative = 1.22604857255
ExecutionTime = 1.91 s  ClockTime = 2 s

Time = 29

smoothSolver:  Solving for Ux, Initial residual = 0.000461431186841, Final residual = 3.40986791717e-05, No Iterations 4
smoothSolver:  Solving for Uy, Initial residual = 0.0267603710553, Final residual = 0.00213567684154, No Iterations 4
smoothSolver:  Solving for Uz, Initial residual = 0.00433289266184, Final residual = 0.000370402422795, No Iterations 4
GAMG:  Solving for p, Initial residual = 0.0412824293301, Final residual = 0.00118495317166, No Iterations 5
time step continuity errors : sum local = 0.0867220283518, global = -0.000439123857564, cumulative = 1.22560944869
ExecutionTime = 1.97 s  ClockTime = 2 s

Time = 30

smoothSolver:  Solving for Ux, Initial residual = 0.00044034328044, Final residual = 3.29267677561e-05, No Iterations 4
smoothSolver:  Solving for Uy, Initial residual = 0.0249558431801, Final residual = 0.00199526295074, No Iterations 4
smoothSolver:  Solving for Uz, Initial residual = 0.00446155608623, Final residual = 0.000384268892712, No Iterations 4
GAMG:  Solving for p, Initial residual = 0.0352761167884, Final residual = 0.00168683209658, No Iterations 4
time step continuity errors : sum local = 0.123738334785, global = 0.000253260831874, cumulative = 1.22586270952
ExecutionTime = 2.02 s  ClockTime = 2 s

Time = 31

smoothSolver:  Solving for Ux, Initial residual = 0.000423011700958, Final residual = 3.1918419911e-05, No Iterations 4
smoothSolver:  Solving for Uy, Initial residual = 0.0232810089434, Final residual = 0.00186960394665, No Iterations 4
smoothSolver:  Solving for Uz, Initial residual = 0.0044342163746, Final residual = 0.000383806253202, No Iterations 4
GAMG:  Solving for p, Initial residual = 0.0311576654008, Final residual = 0.00100396226597, No Iterations 5
time step continuity errors : sum local = 0.0724524493834, global = 2.74229777738e-05, cumulative = 1.2258901325
ExecutionTime = 2.08 s  ClockTime = 2 s

Time = 32

smoothSolver:  Solving for Ux, Initial residual = 0.000408154692709, Final residual = 3.10181053988e-05, No Iterations 4
smoothSolver:  Solving for Uy, Initial residual = 0.0223346929839, Final residual = 0.00181888637475, No Iterations 4
smoothSolver:  Solving for Uz, Initial residual = 0.00422083653794, Final residual = 0.000366222109047, No Iterations 4
GAMG:  Solving for p, Initial residual = 0.0292388006138, Final residual = 0.00061679521131, No Iterations 5
time step continuity errors : sum local = 0.0417521168992, global = 0.000447584612336, cumulative = 1.22633771711
ExecutionTime = 2.14 s  ClockTime = 2 s

Time = 33

smoothSolver:  Solving for Ux, Initial residual = 0.000396341887291, Final residual = 3.03162407094e-05, No Iterations 4
smoothSolver:  Solving for Uy, Initial residual = 0.0205353341013, Final residual = 0.00165459208719, No Iterations 4
smoothSolver:  Solving for Uz, Initial residual = 0.00389540981694, Final residual = 0.000337497715278, No Iterations 4
GAMG:  Solving for p, Initial residual = 0.0288021698163, Final residual = 0.00107077494295, No Iterations 5
time step continuity errors : sum local = 0.0666755188071, global = 0.000224718548486, cumulative = 1.22656243566
ExecutionTime = 2.22 s  ClockTime = 2 s

Time = 34

smoothSolver:  Solving for Ux, Initial residual = 0.000386499413683, Final residual = 2.97272798174e-05, No Iterations 4
smoothSolver:  Solving for Uy, Initial residual = 0.0194692727729, Final residual = 0.00157479514983, No Iterations 4
smoothSolver:  Solving for Uz, Initial residual = 0.00348749459652, Final residual = 0.000301119979888, No Iterations 4
GAMG:  Solving for p, Initial residual = 0.0289413619227, Final residual = 0.000985802158294, No Iterations 5
time step continuity errors : sum local = 0.0569763441507, global = 0.000660697783694, cumulative = 1.22722313344
ExecutionTime = 2.28 s  ClockTime = 3 s

Time = 35

smoothSolver:  Solving for Ux, Initial residual = 0.000377473875053, Final residual = 2.91842775693e-05, No Iterations 4
smoothSolver:  Solving for Uy, Initial residual = 0.0181196799241, Final residual = 0.00146427999114, No Iterations 4
smoothSolver:  Solving for Uz, Initial residual = 0.00307899433043, Final residual = 0.000263780321359, No Iterations 4
GAMG:  Solving for p, Initial residual = 0.0295882737572, Final residual = 0.000933537431304, No Iterations 5
time step continuity errors : sum local = 0.0514917020168, global = 0.000516512309417, cumulative = 1.22773964575
ExecutionTime = 2.35 s  ClockTime = 3 s

Time = 36

smoothSolver:  Solving for Ux, Initial residual = 0.000367232751435, Final residual = 2.86344054868e-05, No Iterations 4
smoothSolver:  Solving for Uy, Initial residual = 0.0163838850535, Final residual = 0.00131337962342, No Iterations 4
smoothSolver:  Solving for Uz, Initial residual = 0.00272809433629, Final residual = 0.00023126609085, No Iterations 4
GAMG:  Solving for p, Initial residual = 0.0293350729304, Final residual = 0.00093536510265, No Iterations 5
time step continuity errors : sum local = 0.0500547101771, global = 0.000326075808948, cumulative = 1.22806572156
ExecutionTime = 2.4 s  ClockTime = 3 s

Time = 37

smoothSolver:  Solving for Ux, Initial residual = 0.000357481932325, Final residual = 2.80715918491e-05, No Iterations 4
smoothSolver:  Solving for Uy, Initial residual = 0.014290284563, Final residual = 0.0011233516636, No Iterations 4
smoothSolver:  Solving for Uz, Initial residual = 0.0024943954208, Final residual = 0.000210214829834, No Iterations 4
GAMG:  Solving for p, Initial residual = 0.0278764963196, Final residual = 0.00132037793266, No Iterations 4
time step continuity errors : sum local = 0.0688295998897, global = 0.00013840199484, cumulative = 1.22820412356
ExecutionTime = 2.48 s  ClockTime = 3 s

Time = 38

smoothSolver:  Solving for Ux, Initial residual = 0.000348264196802, Final residual = 2.74926018623e-05, No Iterations 4
smoothSolver:  Solving for Uy, Initial residual = 0.0131493433491, Final residual = 0.001037995797, No Iterations 4
smoothSolver:  Solving for Uz, Initial residual = 0.00240605512051, Final residual = 0.000205450540887, No Iterations 4
GAMG:  Solving for p, Initial residual = 0.0254074131401, Final residual = 0.000611798576837, No Iterations 5
time step continuity errors : sum local = 0.0312907524133, global = -6.74555770977e-05, cumulative = 1.22813666798
ExecutionTime = 2.53 s  ClockTime = 3 s

Time = 39

smoothSolver:  Solving for Ux, Initial residual = 0.000340268842578, Final residual = 2.69656831821e-05, No Iterations 4
smoothSolver:  Solving for Uy, Initial residual = 0.0125116701259, Final residual = 0.00100310190619, No Iterations 4
smoothSolver:  Solving for Uz, Initial residual = 0.0024993235175, Final residual = 0.000216756266166, No Iterations 4
GAMG:  Solving for p, Initial residual = 0.0221952669387, Final residual = 0.000942601974975, No Iterations 4
time step continuity errors : sum local = 0.0477155805699, global = -4.12237542241e-05, cumulative = 1.22809544423
ExecutionTime = 2.61 s  ClockTime = 3 s

Time = 40

smoothSolver:  Solving for Ux, Initial residual = 0.000331450765135, Final residual = 2.64207948754e-05, No Iterations 4
smoothSolver:  Solving for Uy, Initial residual = 0.0130372650108, Final residual = 0.00106020865287, No Iterations 4
smoothSolver:  Solving for Uz, Initial residual = 0.00254127648414, Final residual = 0.000221310996715, No Iterations 4
GAMG:  Solving for p, Initial residual = 0.0191476461084, Final residual = 0.000809178992863, No Iterations 4
time step continuity errors : sum local = 0.0406709290047, global = -0.000201059596378, cumulative = 1.22789438463
ExecutionTime = 2.66 s  ClockTime = 3 s

Time = 41

smoothSolver:  Solving for Ux, Initial residual = 0.00032236989208, Final residual = 2.58603274999e-05, No Iterations 4
smoothSolver:  Solving for Uy, Initial residual = 0.0130923808203, Final residual = 0.0010721177607, No Iterations 4
smoothSolver:  Solving for Uz, Initial residual = 0.00250525635431, Final residual = 0.000218569634012, No Iterations 4
GAMG:  Solving for p, Initial residual = 0.0166400723154, Final residual = 0.000783023323341, No Iterations 4
time step continuity errors : sum local = 0.0390044495565, global = -4.64147083233e-05, cumulative = 1.22784796992
ExecutionTime = 2.72 s  ClockTime = 3 s

Time = 42

smoothSolver:  Solving for Ux, Initial residual = 0.000315098784027, Final residual = 2.53764133021e-05, No Iterations 4
smoothSolver:  Solving for Uy, Initial residual = 0.0127698921877, Final residual = 0.0010498916037, No Iterations 4
smoothSolver:  Solving for Uz, Initial residual = 0.00241293250889, Final residual = 0.00021036721078, No Iterations 4
GAMG:  Solving for p, Initial residual = 0.0149295095133, Final residual = 0.00056314755033, No Iterations 5
time step continuity errors : sum local = 0.0277732610515, global = -4.82534039321e-06, cumulative = 1.22784314458
ExecutionTime = 2.79 s  ClockTime = 3 s

Time = 43

smoothSolver:  Solving for Ux, Initial residual = 0.000309094262169, Final residual = 2.49833080603e-05, No Iterations 4
smoothSolver:  Solving for Uy, Initial residual = 0.0121165398864, Final residual = 0.000994411598988, No Iterations 4
smoothSolver:  Solving for Uz, Initial residual = 0.00227195625788, Final residual = 0.000197654499033, No Iterations 4
GAMG:  Solving for p, Initial residual = 0.0142312702905, Final residual = 0.00047704515205, No Iterations 5
time step continuity errors : sum local = 0.0231249019717, global = 2.06302120387e-05, cumulative = 1.22786377479
ExecutionTime = 2.86 s  ClockTime = 3 s

Time = 44

smoothSolver:  Solving for Ux, Initial residual = 0.000303994335642, Final residual = 2.46394467403e-05, No Iterations 4
smoothSolver:  Solving for Uy, Initial residual = 0.0110006745931, Final residual = 0.000897870249024, No Iterations 4
smoothSolver:  Solving for Uz, Initial residual = 0.00209472395824, Final residual = 0.000181818741641, No Iterations 4
GAMG:  Solving for p, Initial residual = 0.0142969159836, Final residual = 0.000581729046334, No Iterations 5
time step continuity errors : sum local = 0.0273860264873, global = 0.000105363390449, cumulative = 1.22796913818
ExecutionTime = 2.92 s  ClockTime = 3 s

Time = 45

smoothSolver:  Solving for Ux, Initial residual = 0.000298823251106, Final residual = 2.42707841575e-05, No Iterations 4
smoothSolver:  Solving for Uy, Initial residual = 0.00958951509774, Final residual = 0.000776071260835, No Iterations 4
smoothSolver:  Solving for Uz, Initial residual = 0.00192731798435, Final residual = 0.00016676005032, No Iterations 4
GAMG:  Solving for p, Initial residual = 0.0143734774736, Final residual = 0.000566340648558, No Iterations 5
time step continuity errors : sum local = 0.0257986731844, global = 5.42653537773e-05, cumulative = 1.22802340354
ExecutionTime = 3 s  ClockTime = 3 s

Time = 46

smoothSolver:  Solving for Ux, Initial residual = 0.00029346743078, Final residual = 2.38727678566e-05, No Iterations 4
smoothSolver:  Solving for Uy, Initial residual = 0.0085605757748, Final residual = 0.000685118042554, No Iterations 4
smoothSolver:  Solving for Uz, Initial residual = 0.00178916539842, Final residual = 0.000154396844046, No Iterations 4
GAMG:  Solving for p, Initial residual = 0.0137914170827, Final residual = 0.00051015798814, No Iterations 5
time step continuity errors : sum local = 0.0226313618712, global = 7.51202159231e-05, cumulative = 1.22809852375
ExecutionTime = 3.05 s  ClockTime = 3 s

Time = 47

smoothSolver:  Solving for Ux, Initial residual = 0.000288645752679, Final residual = 2.34902791607e-05, No Iterations 4
smoothSolver:  Solving for Uy, Initial residual = 0.00761631570053, Final residual = 0.000600474812384, No Iterations 4
smoothSolver:  Solving for Uz, Initial residual = 0.00172213794445, Final residual = 0.000148810787253, No Iterations 4
GAMG:  Solving for p, Initial residual = 0.013010355978, Final residual = 0.000497435418389, No Iterations 5
time step continuity errors : sum local = 0.0214938027633, global = 5.10579394325e-05, cumulative = 1.22814958169
ExecutionTime = 3.13 s  ClockTime = 3 s

Time = 48

smoothSolver:  Solving for Ux, Initial residual = 0.000284053937337, Final residual = 2.31225362018e-05, No Iterations 4
smoothSolver:  Solving for Uy, Initial residual = 0.00790946316504, Final residual = 0.000638039975762, No Iterations 4
smoothSolver:  Solving for Uz, Initial residual = 0.00171814405008, Final residual = 0.000150204253334, No Iterations 4
GAMG:  Solving for p, Initial residual = 0.011857869151, Final residual = 0.000379674583766, No Iterations 5
time step continuity errors : sum local = 0.0160929628676, global = 3.81167339247e-05, cumulative = 1.22818769843
ExecutionTime = 3.19 s  ClockTime = 3 s

Time = 49

smoothSolver:  Solving for Ux, Initial residual = 0.000279593693359, Final residual = 2.27879643447e-05, No Iterations 4
smoothSolver:  Solving for Uy, Initial residual = 0.00800525121011, Final residual = 0.000647965740632, No Iterations 4
smoothSolver:  Solving for Uz, Initial residual = 0.00174045574816, Final residual = 0.000153064790741, No Iterations 4
GAMG:  Solving for p, Initial residual = 0.0106035302248, Final residual = 0.000528321266791, No Iterations 4
time step continuity errors : sum local = 0.0219919981607, global = 4.28950755098e-05, cumulative = 1.2282305935
ExecutionTime = 3.23 s  ClockTime = 3 s

Time = 50

smoothSolver:  Solving for Ux, Initial residual = 0.000275965854485, Final residual = 2.25032502402e-05, No Iterations 4
smoothSolver:  Solving for Uy, Initial residual = 0.00860218159147, Final residual = 0.000711320260416, No Iterations 4
smoothSolver:  Solving for Uz, Initial residual = 0.00172926967474, Final residual = 0.000152396468662, No Iterations 4
GAMG:  Solving for p, Initial residual = 0.00941524291714, Final residual = 0.000161192890288, No Iterations 5
time step continuity errors : sum local = 0.00662960760002, global = 2.80738116865e-05, cumulative = 1.22825866731
ExecutionTime = 3.29 s  ClockTime = 4 s

Time = 51

smoothSolver:  Solving for Ux, Initial residual = 0.00027188511612, Final residual = 2.223605151e-05, No Iterations 4
smoothSolver:  Solving for Uy, Initial residual = 0.00844626813298, Final residual = 0.000698204318669, No Iterations 4
smoothSolver:  Solving for Uz, Initial residual = 0.0016910082605, Final residual = 0.000149210028707, No Iterations 4
GAMG:  Solving for p, Initial residual = 0.00846660262906, Final residual = 0.000407361193783, No Iterations 4
time step continuity errors : sum local = 0.016532133847, global = 4.92137074209e-05, cumulative = 1.22830788102
ExecutionTime = 3.35 s  ClockTime = 4 s

Time = 52

smoothSolver:  Solving for Ux, Initial residual = 0.000269069483728, Final residual = 2.19916406516e-05, No Iterations 4
smoothSolver:  Solving for Uy, Initial residual = 0.00813213470076, Final residual = 0.000671639099467, No Iterations 4
smoothSolver:  Solving for Uz, Initial residual = 0.00162544823343, Final residual = 0.00014354553926, No Iterations 4
GAMG:  Solving for p, Initial residual = 0.00799535285394, Final residual = 0.000221565109558, No Iterations 5
time step continuity errors : sum local = 0.00887450924766, global = 7.87676084343e-05, cumulative = 1.22838664863
ExecutionTime = 3.43 s  ClockTime = 4 s

Time = 53

smoothSolver:  Solving for Ux, Initial residual = 0.000267662475442, Final residual = 2.17662558375e-05, No Iterations 4
smoothSolver:  Solving for Uy, Initial residual = 0.00759676104085, Final residual = 0.000624073303229, No Iterations 4
smoothSolver:  Solving for Uz, Initial residual = 0.00154289100651, Final residual = 0.000136316835487, No Iterations 4
GAMG:  Solving for p, Initial residual = 0.00771462813817, Final residual = 0.00027860571324, No Iterations 5
time step continuity errors : sum local = 0.0110325003008, global = 0.000132748810718, cumulative = 1.22851939744
ExecutionTime = 3.48 s  ClockTime = 4 s

Time = 54

smoothSolver:  Solving for Ux, Initial residual = 0.000263291179475, Final residual = 2.1494672365e-05, No Iterations 4
smoothSolver:  Solving for Uy, Initial residual = 0.00691959936916, Final residual = 0.000564926495265, No Iterations 4
smoothSolver:  Solving for Uz, Initial residual = 0.00145835434973, Final residual = 0.000128652839745, No Iterations 4
GAMG:  Solving for p, Initial residual = 0.0075045708269, Final residual = 0.000281468181908, No Iterations 5
time step continuity errors : sum local = 0.011016029742, global = 6.56705320737e-05, cumulative = 1.22858506797
ExecutionTime = 3.54 s  ClockTime = 4 s

Time = 55

smoothSolver:  Solving for Ux, Initial residual = 0.000259982344587, Final residual = 2.12169499941e-05, No Iterations 4
smoothSolver:  Solving for Uy, Initial residual = 0.00620378019188, Final residual = 0.000503136345387, No Iterations 4
smoothSolver:  Solving for Uz, Initial residual = 0.00138487968097, Final residual = 0.00012193907313, No Iterations 4
GAMG:  Solving for p, Initial residual = 0.00724817127409, Final residual = 0.000280995266472, No Iterations 5
time step continuity errors : sum local = 0.010864596513, global = 4.83281285459e-05, cumulative = 1.2286333961
ExecutionTime = 3.62 s  ClockTime = 4 s

Time = 56

smoothSolver:  Solving for Ux, Initial residual = 0.000255001347873, Final residual = 2.08840864644e-05, No Iterations 4
smoothSolver:  Solving for Uy, Initial residual = 0.00571864023728, Final residual = 0.000462460572677, No Iterations 4
smoothSolver:  Solving for Uz, Initial residual = 0.00132838450939, Final residual = 0.000116737124804, No Iterations 4
GAMG:  Solving for p, Initial residual = 0.00694380235856, Final residual = 0.000294441885564, No Iterations 5
time step continuity errors : sum local = 0.0112406838677, global = 5.01140858937e-05, cumulative = 1.22868351019
ExecutionTime = 3.67 s  ClockTime = 4 s

Time = 57

smoothSolver:  Solving for Ux, Initial residual = 0.000250504652577, Final residual = 2.05872403433e-05, No Iterations 4
smoothSolver:  Solving for Uy, Initial residual = 0.00563728055066, Final residual = 0.000462763859313, No Iterations 4
smoothSolver:  Solving for Uz, Initial residual = 0.00130701465131, Final residual = 0.000115163471032, No Iterations 4
GAMG:  Solving for p, Initial residual = 0.00650542585126, Final residual = 0.00020397034667, No Iterations 5
time step continuity errors : sum local = 0.00769404362117, global = 3.698063227e-05, cumulative = 1.22872049082
ExecutionTime = 3.75 s  ClockTime = 4 s

Time = 58

smoothSolver:  Solving for Ux, Initial residual = 0.000246864545787, Final residual = 2.02937499491e-05, No Iterations 4
smoothSolver:  Solving for Uy, Initial residual = 0.00589339330803, Final residual = 0.000492749457025, No Iterations 4
smoothSolver:  Solving for Uz, Initial residual = 0.00131370921949, Final residual = 0.000116081883878, No Iterations 4
GAMG:  Solving for p, Initial residual = 0.00594933174312, Final residual = 0.000147603919843, No Iterations 5
time step continuity errors : sum local = 0.0054976897019, global = 3.57173831666e-05, cumulative = 1.2287562082
ExecutionTime = 3.81 s  ClockTime = 4 s

Time = 59

smoothSolver:  Solving for Ux, Initial residual = 0.000243338999003, Final residual = 1.99766438636e-05, No Iterations 4
smoothSolver:  Solving for Uy, Initial residual = 0.00616395189136, Final residual = 0.000521033580629, No Iterations 4
smoothSolver:  Solving for Uz, Initial residual = 0.00130919737095, Final residual = 0.000115894046961, No Iterations 4
GAMG:  Solving for p, Initial residual = 0.00536961395244, Final residual = 0.000145818069223, No Iterations 5
time step continuity errors : sum local = 0.00536657493563, global = 1.77556396375e-05, cumulative = 1.22877396384
ExecutionTime = 3.87 s  ClockTime = 4 s

Time = 60

smoothSolver:  Solving for Ux, Initial residual = 0.00024005924354, Final residual = 1.96541214317e-05, No Iterations 4
smoothSolver:  Solving for Uy, Initial residual = 0.00627219894687, Final residual = 0.000531464668051, No Iterations 4
smoothSolver:  Solving for Uz, Initial residual = 0.00128644581449, Final residual = 0.00011402376136, No Iterations 4
GAMG:  Solving for p, Initial residual = 0.00491880070787, Final residual = 0.000129026647372, No Iterations 5
time step continuity errors : sum local = 0.00468579842767, global = 1.22906510821e-05, cumulative = 1.22878625449
ExecutionTime = 3.93 s  ClockTime = 4 s

Time = 61

smoothSolver:  Solving for Ux, Initial residual = 0.000238075727194, Final residual = 1.94106262447e-05, No Iterations 4
smoothSolver:  Solving for Uy, Initial residual = 0.00625923146688, Final residual = 0.000531169151885, No Iterations 4
smoothSolver:  Solving for Uz, Initial residual = 0.00125408160746, Final residual = 0.000111327917102, No Iterations 4
GAMG:  Solving for p, Initial residual = 0.00458711642423, Final residual = 0.000112058365302, No Iterations 5
time step continuity errors : sum local = 0.00402415809222, global = 1.42049725443e-05, cumulative = 1.22880045947
ExecutionTime = 3.99 s  ClockTime = 4 s

Time = 62

smoothSolver:  Solving for Ux, Initial residual = 0.000236423338815, Final residual = 1.93164496034e-05, No Iterations 4
smoothSolver:  Solving for Uy, Initial residual = 0.0061002122695, Final residual = 0.000517960098268, No Iterations 4
smoothSolver:  Solving for Uz, Initial residual = 0.00122311743233, Final residual = 0.000108682933948, No Iterations 4
GAMG:  Solving for p, Initial residual = 0.00434252677378, Final residual = 0.000134881596979, No Iterations 5
time step continuity errors : sum local = 0.00479540427594, global = 8.69422542633e-06, cumulative = 1.22880915369
ExecutionTime = 4.06 s  ClockTime = 4 s

Time = 63

smoothSolver:  Solving for Ux, Initial residual = 0.000234033820877, Final residual = 1.92051898063e-05, No Iterations 4
smoothSolver:  Solving for Uy, Initial residual = 0.00578374863674, Final residual = 0.000490788360175, No Iterations 4
smoothSolver:  Solving for Uz, Initial residual = 0.00118638166235, Final residual = 0.000105511617068, No Iterations 4
GAMG:  Solving for p, Initial residual = 0.00417570551664, Final residual = 0.000164502183584, No Iterations 5
time step continuity errors : sum local = 0.00578798795512, global = 2.97804744282e-05, cumulative = 1.22883893416
ExecutionTime = 4.12 s  ClockTime = 4 s

Time = 64

smoothSolver:  Solving for Ux, Initial residual = 0.000233099372559, Final residual = 1.90658042498e-05, No Iterations 4
smoothSolver:  Solving for Uy, Initial residual = 0.00542844562437, Final residual = 0.000459450372855, No Iterations 4
smoothSolver:  Solving for Uz, Initial residual = 0.00114705333884, Final residual = 0.00010202938289, No Iterations 4
GAMG:  Solving for p, Initial residual = 0.00401447662186, Final residual = 0.000142293795837, No Iterations 5
time step continuity errors : sum local = 0.00495544968006, global = 2.99905438277e-05, cumulative = 1.22886892471
ExecutionTime = 4.19 s  ClockTime = 4 s

Time = 65

smoothSolver:  Solving for Ux, Initial residual = 0.000231855298216, Final residual = 1.88936160524e-05, No Iterations 4
smoothSolver:  Solving for Uy, Initial residual = 0.00505214151883, Final residual = 0.000424099115874, No Iterations 4
smoothSolver:  Solving for Uz, Initial residual = 0.00111123388716, Final residual = 9.88330694135e-05, No Iterations 4
GAMG:  Solving for p, Initial residual = 0.00389996486428, Final residual = 0.000160453889182, No Iterations 5
time step continuity errors : sum local = 0.00551879947033, global = 3.46100502519e-05, cumulative = 1.22890353476
ExecutionTime = 4.25 s  ClockTime = 5 s

Time = 66

smoothSolver:  Solving for Ux, Initial residual = 0.000230026486184, Final residual = 1.87167946532e-05, No Iterations 4
smoothSolver:  Solving for Uy, Initial residual = 0.00479985477991, Final residual = 0.000398773099841, No Iterations 4
smoothSolver:  Solving for Uz, Initial residual = 0.00108375145329, Final residual = 9.64815621839e-05, No Iterations 4
GAMG:  Solving for p, Initial residual = 0.00375052206501, Final residual = 0.000119983709869, No Iterations 5
time step continuity errors : sum local = 0.0040808751726, global = 2.40027720875e-05, cumulative = 1.22892753753
ExecutionTime = 4.32 s  ClockTime = 5 s

Time = 67

smoothSolver:  Solving for Ux, Initial residual = 0.000229111825582, Final residual = 1.8534556759e-05, No Iterations 4
smoothSolver:  Solving for Uy, Initial residual = 0.00458232629761, Final residual = 0.00037838413053, No Iterations 4
smoothSolver:  Solving for Uz, Initial residual = 0.00106794434929, Final residual = 9.53982842581e-05, No Iterations 4
GAMG:  Solving for p, Initial residual = 0.00355786749874, Final residual = 9.32773880304e-05, No Iterations 5
time step continuity errors : sum local = 0.00313337701312, global = 2.41654478291e-05, cumulative = 1.22895170298
ExecutionTime = 4.38 s  ClockTime = 5 s

Time = 68

smoothSolver:  Solving for Ux, Initial residual = 0.000224956716916, Final residual = 1.83060855626e-05, No Iterations 4
smoothSolver:  Solving for Uy, Initial residual = 0.00456438970654, Final residual = 0.00037969918074, No Iterations 4
smoothSolver:  Solving for Uz, Initial residual = 0.00106029337288, Final residual = 9.48932382523e-05, No Iterations 4
GAMG:  Solving for p, Initial residual = 0.00330959925901, Final residual = 9.34405834929e-05, No Iterations 5
time step continuity errors : sum local = 0.00310216014071, global = 1.41476647208e-05, cumulative = 1.22896585064
ExecutionTime = 4.45 s  ClockTime = 5 s

Time = 69

smoothSolver:  Solving for Ux, Initial residual = 0.000222863398524, Final residual = 1.80801752592e-05, No Iterations 4
smoothSolver:  Solving for Uy, Initial residual = 0.00457298234685, Final residual = 0.000381945568236, No Iterations 4
smoothSolver:  Solving for Uz, Initial residual = 0.00105086139718, Final residual = 9.40425966916e-05, No Iterations 4
GAMG:  Solving for p, Initial residual = 0.00306505800294, Final residual = 0.000126079813628, No Iterations 5
time step continuity errors : sum local = 0.00413919468473, global = -1.48290258944e-06, cumulative = 1.22896436774
ExecutionTime = 4.51 s  ClockTime = 5 s

Time = 70

smoothSolver:  Solving for Ux, Initial residual = 0.000219895222523, Final residual = 1.78408380013e-05, No Iterations 4
smoothSolver:  Solving for Uy, Initial residual = 0.00464194950862, Final residual = 0.000389760331766, No Iterations 4
smoothSolver:  Solving for Uz, Initial residual = 0.00103448245271, Final residual = 9.24939094443e-05, No Iterations 4
GAMG:  Solving for p, Initial residual = 0.00281463464091, Final residual = 0.000126051925972, No Iterations 4
time step continuity errors : sum local = 0.00410154726017, global = 6.15706396504e-05, cumulative = 1.22902593838
ExecutionTime = 4.57 s  ClockTime = 5 s

Time = 71

smoothSolver:  Solving for Ux, Initial residual = 0.000217167770271, Final residual = 1.76464018139e-05, No Iterations 4
smoothSolver:  Solving for Uy, Initial residual = 0.00450825436189, Final residual = 0.000378261798156, No Iterations 4
smoothSolver:  Solving for Uz, Initial residual = 0.00101617696662, Final residual = 9.07784282427e-05, No Iterations 4
GAMG:  Solving for p, Initial residual = 0.00259768185185, Final residual = 0.000101180019029, No Iterations 5
time step continuity errors : sum local = 0.00327167127323, global = 1.51320494862e-05, cumulative = 1.22904107043
ExecutionTime = 4.64 s  ClockTime = 5 s

Time = 72

smoothSolver:  Solving for Ux, Initial residual = 0.000217444674647, Final residual = 1.7570269604e-05, No Iterations 4
smoothSolver:  Solving for Uy, Initial residual = 0.00433971772252, Final residual = 0.000363710650151, No Iterations 4
smoothSolver:  Solving for Uz, Initial residual = 0.000998527410762, Final residual = 8.91626393205e-05, No Iterations 4
GAMG:  Solving for p, Initial residual = 0.0024697044466, Final residual = 0.000119282993723, No Iterations 5
time step continuity errors : sum local = 0.0038186282831, global = 1.53813103675e-05, cumulative = 1.22905645174
ExecutionTime = 4.7 s  ClockTime = 5 s

Time = 73

smoothSolver:  Solving for Ux, Initial residual = 0.000218452750776, Final residual = 1.75072744716e-05, No Iterations 4
smoothSolver:  Solving for Uy, Initial residual = 0.00421361159679, Final residual = 0.000352150169709, No Iterations 4
smoothSolver:  Solving for Uz, Initial residual = 0.000978957264131, Final residual = 8.74820736333e-05, No Iterations 4
GAMG:  Solving for p, Initial residual = 0.00235724850543, Final residual = 9.69089837355e-05, No Iterations 6
time step continuity errors : sum local = 0.00307551716709, global = 2.10787756052e-05, cumulative = 1.22907753052
ExecutionTime = 4.77 s  ClockTime = 5 s

Time = 74

smoothSolver:  Solving for Ux, Initial residual = 0.000218186975824, Final residual = 1.74436727871e-05, No Iterations 4
smoothSolver:  Solving for Uy, Initial residual = 0.00408972975084, Final residual = 0.000341531569811, No Iterations 4
smoothSolver:  Solving for Uz, Initial residual = 0.000960773934589, Final residual = 8.59460251479e-05, No Iterations 4
GAMG:  Solving for p, Initial residual = 0.00229334173057, Final residual = 8.5284747711e-05, No Iterations 6
time step continuity errors : sum local = 0.00268155792971, global = 2.24460389665e-05, cumulative = 1.22909997656
ExecutionTime = 4.84 s  ClockTime = 5 s

Time = 75

smoothSolver:  Solving for Ux, Initial residual = 0.000216187976908, Final residual = 1.73629500156e-05, No Iterations 4
smoothSolver:  Solving for Uy, Initial residual = 0.00402998225137, Final residual = 0.000338067124299, No Iterations 4
smoothSolver:  Solving for Uz, Initial residual = 0.000946946267475, Final residual = 8.47352251906e-05, No Iterations 4
GAMG:  Solving for p, Initial residual = 0.00223072166273, Final residual = 8.83039511389e-05, No Iterations 6
time step continuity errors : sum local = 0.00275247154299, global = 1.91749187515e-05, cumulative = 1.22911915147
ExecutionTime = 4.91 s  ClockTime = 5 s

Time = 76

smoothSolver:  Solving for Ux, Initial residual = 0.000213559416063, Final residual = 1.72521168769e-05, No Iterations 4
smoothSolver:  Solving for Uy, Initial residual = 0.00407313939784, Final residual = 0.000345404445393, No Iterations 4
smoothSolver:  Solving for Uz, Initial residual = 0.000939064334694, Final residual = 8.40186981092e-05, No Iterations 4
GAMG:  Solving for p, Initial residual = 0.00215940844405, Final residual = 7.14271497973e-05, No Iterations 6
time step continuity errors : sum local = 0.00220706665502, global = 1.21022528891e-05, cumulative = 1.22913125373
ExecutionTime = 4.97 s  ClockTime = 5 s

Time = 77

smoothSolver:  Solving for Ux, Initial residual = 0.000215468460944, Final residual = 1.71587830209e-05, No Iterations 4
smoothSolver:  Solving for Uy, Initial residual = 0.00419236123683, Final residual = 0.000357881163194, No Iterations 4
smoothSolver:  Solving for Uz, Initial residual = 0.00093437179732, Final residual = 8.36198836736e-05, No Iterations 4
GAMG:  Solving for p, Initial residual = 0.00206567606247, Final residual = 8.08756193499e-05, No Iterations 5
time step continuity errors : sum local = 0.00247666543752, global = 9.88812815057e-06, cumulative = 1.22914114185
ExecutionTime = 5.04 s  ClockTime = 5 s

Time = 78

smoothSolver:  Solving for Ux, Initial residual = 0.000214101793627, Final residual = 1.70248049448e-05, No Iterations 4
smoothSolver:  Solving for Uy, Initial residual = 0.00426663552222, Final residual = 0.000364948512653, No Iterations 4
smoothSolver:  Solving for Uz, Initial residual = 0.000928797930643, Final residual = 8.31682486681e-05, No Iterations 4
GAMG:  Solving for p, Initial residual = 0.0019588236365, Final residual = 8.68165909599e-05, No Iterations 4
time step continuity errors : sum local = 0.00263709184761, global = 9.22617277251e-06, cumulative = 1.22915036803
ExecutionTime = 5.12 s  ClockTime = 5 s

Time = 79

smoothSolver:  Solving for Ux, Initial residual = 0.000215290335895, Final residual = 1.69029583129e-05, No Iterations 4
smoothSolver:  Solving for Uy, Initial residual = 0.00430990674515, Final residual = 0.000369732932949, No Iterations 4
smoothSolver:  Solving for Uz, Initial residual = 0.000919680228057, Final residual = 8.25107767449e-05, No Iterations 4
GAMG:  Solving for p, Initial residual = 0.00184460250331, Final residual = 8.20034885867e-05, No Iterations 4
time step continuity errors : sum local = 0.00247183228687, global = 1.20168162217e-05, cumulative = 1.22916238484
ExecutionTime = 5.18 s  ClockTime = 5 s

Time = 80

smoothSolver:  Solving for Ux, Initial residual = 0.000211762692752, Final residual = 1.67157241029e-05, No Iterations 4
smoothSolver:  Solving for Uy, Initial residual = 0.00432624179999, Final residual = 0.00037143945715, No Iterations 4
smoothSolver:  Solving for Uz, Initial residual = 0.000907413004075, Final residual = 8.14717244788e-05, No Iterations 4
GAMG:  Solving for p, Initial residual = 0.00171550311195, Final residual = 3.88419435293e-05, No Iterations 6
time step continuity errors : sum local = 0.0011613009953, global = 4.99919205628e-06, cumulative = 1.22916738404
ExecutionTime = 5.25 s  ClockTime = 5 s

Time = 81

smoothSolver:  Solving for Ux, Initial residual = 0.000209249943042, Final residual = 1.65417964626e-05, No Iterations 4
smoothSolver:  Solving for Uy, Initial residual = 0.00422099044401, Final residual = 0.000362979647022, No Iterations 4
smoothSolver:  Solving for Uz, Initial residual = 0.000894099739031, Final residual = 8.02213801504e-05, No Iterations 4
GAMG:  Solving for p, Initial residual = 0.00161315464914, Final residual = 7.71018009962e-05, No Iterations 5
time step continuity errors : sum local = 0.00228302308122, global = 7.60221703968e-06, cumulative = 1.22917498625
ExecutionTime = 5.32 s  ClockTime = 6 s

Time = 82

smoothSolver:  Solving for Ux, Initial residual = 0.000207707549279, Final residual = 1.63912451824e-05, No Iterations 4
smoothSolver:  Solving for Uy, Initial residual = 0.00415131509759, Final residual = 0.000356900715065, No Iterations 4
smoothSolver:  Solving for Uz, Initial residual = 0.000880766637504, Final residual = 7.8964052205e-05, No Iterations 4
GAMG:  Solving for p, Initial residual = 0.00153122626753, Final residual = 3.86704842181e-05, No Iterations 6
time step continuity errors : sum local = 0.00113603555891, global = 6.33394929589e-06, cumulative = 1.2291813202
ExecutionTime = 5.39 s  ClockTime = 6 s

Time = 83

smoothSolver:  Solving for Ux, Initial residual = 0.000206033813169, Final residual = 1.62538278765e-05, No Iterations 4
smoothSolver:  Solving for Uy, Initial residual = 0.00401433801156, Final residual = 0.000344760528938, No Iterations 4
smoothSolver:  Solving for Uz, Initial residual = 0.000866993521079, Final residual = 7.76973256083e-05, No Iterations 4
GAMG:  Solving for p, Initial residual = 0.00147176862093, Final residual = 4.10222338587e-05, No Iterations 6
time step continuity errors : sum local = 0.00119509110517, global = 7.27719295179e-06, cumulative = 1.2291885974
ExecutionTime = 5.44 s  ClockTime = 6 s

Time = 84

smoothSolver:  Solving for Ux, Initial residual = 0.000206753004626, Final residual = 1.61299238426e-05, No Iterations 4
smoothSolver:  Solving for Uy, Initial residual = 0.00389820770823, Final residual = 0.000334090555765, No Iterations 4
smoothSolver:  Solving for Uz, Initial residual = 0.000853480030351, Final residual = 7.65277130783e-05, No Iterations 4
GAMG:  Solving for p, Initial residual = 0.0014380739575, Final residual = 4.54352691738e-05, No Iterations 6
time step continuity errors : sum local = 0.00131259695069, global = 8.11615752662e-06, cumulative = 1.22919671355
ExecutionTime = 5.51 s  ClockTime = 6 s

Time = 85

smoothSolver:  Solving for Ux, Initial residual = 0.000207450419592, Final residual = 1.60039441207e-05, No Iterations 4
smoothSolver:  Solving for Uy, Initial residual = 0.00380348825731, Final residual = 0.000324725754181, No Iterations 4
smoothSolver:  Solving for Uz, Initial residual = 0.000841006149175, Final residual = 7.55267039975e-05, No Iterations 4
GAMG:  Solving for p, Initial residual = 0.00141908892241, Final residual = 3.89352928378e-05, No Iterations 6
time step continuity errors : sum local = 0.00111536064857, global = 8.07466604665e-06, cumulative = 1.22920478822
ExecutionTime = 5.58 s  ClockTime = 6 s

Time = 86

smoothSolver:  Solving for Ux, Initial residual = 0.0002048512557, Final residual = 1.58480970579e-05, No Iterations 4
smoothSolver:  Solving for Uy, Initial residual = 0.00372339033465, Final residual = 0.000316576395085, No Iterations 4
smoothSolver:  Solving for Uz, Initial residual = 0.000830451020244, Final residual = 7.47140458958e-05, No Iterations 4
GAMG:  Solving for p, Initial residual = 0.00137526631857, Final residual = 3.42767628904e-05, No Iterations 6
time step continuity errors : sum local = 0.000973730306672, global = 8.36005797388e-06, cumulative = 1.22921314828
ExecutionTime = 5.65 s  ClockTime = 6 s

Time = 87

smoothSolver:  Solving for Ux, Initial residual = 0.000200276549239, Final residual = 1.56740187806e-05, No Iterations 4
smoothSolver:  Solving for Uy, Initial residual = 0.00364283013705, Final residual = 0.000309819630851, No Iterations 4
smoothSolver:  Solving for Uz, Initial residual = 0.000822146679283, Final residual = 7.39750386177e-05, No Iterations 4
GAMG:  Solving for p, Initial residual = 0.00130946585591, Final residual = 2.82660702894e-05, No Iterations 6
time step continuity errors : sum local = 0.000796439170992, global = 6.43613338803e-06, cumulative = 1.22921958441
ExecutionTime = 5.71 s  ClockTime = 6 s

Time = 88

smoothSolver:  Solving for Ux, Initial residual = 0.000199386945048, Final residual = 1.55134862119e-05, No Iterations 4
smoothSolver:  Solving for Uy, Initial residual = 0.00358251542878, Final residual = 0.000305296216324, No Iterations 4
smoothSolver:  Solving for Uz, Initial residual = 0.00081424882415, Final residual = 7.32252789124e-05, No Iterations 4
GAMG:  Solving for p, Initial residual = 0.00123168471835, Final residual = 5.87614843532e-05, No Iterations 4
time step continuity errors : sum local = 0.00164239451306, global = 1.13051739052e-05, cumulative = 1.22923088958
ExecutionTime = 5.77 s  ClockTime = 6 s

Time = 89

smoothSolver:  Solving for Ux, Initial residual = 0.000199117082953, Final residual = 1.53702618411e-05, No Iterations 4
smoothSolver:  Solving for Uy, Initial residual = 0.00354183223574, Final residual = 0.000302387238337, No Iterations 4
smoothSolver:  Solving for Uz, Initial residual = 0.000805873397148, Final residual = 7.24804522763e-05, No Iterations 4
GAMG:  Solving for p, Initial residual = 0.00115109425745, Final residual = 3.01471909107e-05, No Iterations 6
time step continuity errors : sum local = 0.000836659488073, global = -1.25003774412e-06, cumulative = 1.22922963955
ExecutionTime = 5.83 s  ClockTime = 6 s

Time = 90

smoothSolver:  Solving for Ux, Initial residual = 0.00019903909551, Final residual = 1.52340499403e-05, No Iterations 4
smoothSolver:  Solving for Uy, Initial residual = 0.00352139667799, Final residual = 0.000300904539414, No Iterations 4
smoothSolver:  Solving for Uz, Initial residual = 0.000796713780398, Final residual = 7.1690151648e-05, No Iterations 4
GAMG:  Solving for p, Initial residual = 0.00109091192327, Final residual = 2.82588497871e-05, No Iterations 6
time step continuity errors : sum local = 0.000777896470699, global = 5.96242720671e-06, cumulative = 1.22923560197
ExecutionTime = 5.91 s  ClockTime = 6 s

Time = 91

smoothSolver:  Solving for Ux, Initial residual = 0.000198706713484, Final residual = 1.50850209053e-05, No Iterations 4
smoothSolver:  Solving for Uy, Initial residual = 0.00349417669265, Final residual = 0.000298448230064, No Iterations 4
smoothSolver:  Solving for Uz, Initial residual = 0.000787029040431, Final residual = 7.08810573383e-05, No Iterations 4
GAMG:  Solving for p, Initial residual = 0.00102289689892, Final residual = 3.49710083113e-05, No Iterations 6
time step continuity errors : sum local = 0.000955931052175, global = 4.16243981124e-06, cumulative = 1.22923976441
ExecutionTime = 5.97 s  ClockTime = 6 s

Time = 92

smoothSolver:  Solving for Ux, Initial residual = 0.000198644039603, Final residual = 1.49613298586e-05, No Iterations 4
smoothSolver:  Solving for Uy, Initial residual = 0.00347861919763, Final residual = 0.000297379163372, No Iterations 4
smoothSolver:  Solving for Uz, Initial residual = 0.000777617267129, Final residual = 7.01454329838e-05, No Iterations 4
GAMG:  Solving for p, Initial residual = 0.000977258855074, Final residual = 3.07227868234e-05, No Iterations 6
time step continuity errors : sum local = 0.000834113370549, global = 4.1214773446e-06, cumulative = 1.22924388589
ExecutionTime = 6.04 s  ClockTime = 6 s

Time = 93

smoothSolver:  Solving for Ux, Initial residual = 0.000193841003038, Final residual = 1.47790003878e-05, No Iterations 4
smoothSolver:  Solving for Uy, Initial residual = 0.00345496862116, Final residual = 0.000296018042643, No Iterations 4
smoothSolver:  Solving for Uz, Initial residual = 0.000769783036054, Final residual = 6.93571755777e-05, No Iterations 4
GAMG:  Solving for p, Initial residual = 0.000949026455741, Final residual = 3.08670724252e-05, No Iterations 6
time step continuity errors : sum local = 0.00083256976566, global = 4.72909051429e-06, cumulative = 1.22924861498
ExecutionTime = 6.11 s  ClockTime = 6 s

Time = 94

smoothSolver:  Solving for Ux, Initial residual = 0.00019363586039, Final residual = 1.46364685478e-05, No Iterations 4
smoothSolver:  Solving for Uy, Initial residual = 0.00344846903258, Final residual = 0.000296285069352, No Iterations 4
smoothSolver:  Solving for Uz, Initial residual = 0.000762661009929, Final residual = 6.86140014095e-05, No Iterations 4
GAMG:  Solving for p, Initial residual = 0.000941470319288, Final residual = 3.0329697606e-05, No Iterations 6
time step continuity errors : sum local = 0.000812493816196, global = 4.39209651563e-06, cumulative = 1.22925300708
ExecutionTime = 6.19 s  ClockTime = 6 s

Time = 95

smoothSolver:  Solving for Ux, Initial residual = 0.000194008463145, Final residual = 1.45047321513e-05, No Iterations 4
smoothSolver:  Solving for Uy, Initial residual = 0.00346516969278, Final residual = 0.000297655084503, No Iterations 4
smoothSolver:  Solving for Uz, Initial residual = 0.000755473999937, Final residual = 6.79248325119e-05, No Iterations 4
GAMG:  Solving for p, Initial residual = 0.000931341942136, Final residual = 2.79154113233e-05, No Iterations 6
time step continuity errors : sum local = 0.00074243307905, global = 2.16805657435e-06, cumulative = 1.22925517513
ExecutionTime = 6.24 s  ClockTime = 6 s

Time = 96

smoothSolver:  Solving for Ux, Initial residual = 0.000195507172122, Final residual = 1.43911537058e-05, No Iterations 4
smoothSolver:  Solving for Uy, Initial residual = 0.00349423057587, Final residual = 0.000299658982214, No Iterations 4
smoothSolver:  Solving for Uz, Initial residual = 0.00074834073554, Final residual = 6.73285717041e-05, No Iterations 4
GAMG:  Solving for p, Initial residual = 0.000912685936909, Final residual = 2.56094791401e-05, No Iterations 6
time step continuity errors : sum local = 0.000675986884665, global = 5.65223877019e-06, cumulative = 1.22926082737
ExecutionTime = 6.32 s  ClockTime = 7 s

Time = 97

smoothSolver:  Solving for Ux, Initial residual = 0.000193976130874, Final residual = 1.42524079406e-05, No Iterations 4
smoothSolver:  Solving for Uy, Initial residual = 0.00350167396226, Final residual = 0.000299839971679, No Iterations 4
smoothSolver:  Solving for Uz, Initial residual = 0.000741525068352, Final residual = 6.67921688927e-05, No Iterations 4
GAMG:  Solving for p, Initial residual = 0.000872672689406, Final residual = 2.24144730149e-05, No Iterations 6
time step continuity errors : sum local = 0.0005875759367, global = 5.57990609882e-07, cumulative = 1.22926138536
ExecutionTime = 6.38 s  ClockTime = 7 s

Time = 98

smoothSolver:  Solving for Ux, Initial residual = 0.000189315530298, Final residual = 1.40933281006e-05, No Iterations 4
smoothSolver:  Solving for Uy, Initial residual = 0.00349044159641, Final residual = 0.000299329778528, No Iterations 4
smoothSolver:  Solving for Uz, Initial residual = 0.000735220698263, Final residual = 6.62083718597e-05, No Iterations 4
GAMG:  Solving for p, Initial residual = 0.000829988101033, Final residual = 1.93106629914e-05, No Iterations 6
time step continuity errors : sum local = 0.000502739655775, global = 3.31220076336e-07, cumulative = 1.22926171658
ExecutionTime = 6.45 s  ClockTime = 7 s

Time = 99

smoothSolver:  Solving for Ux, Initial residual = 0.000189105798848, Final residual = 1.39618275364e-05, No Iterations 4
smoothSolver:  Solving for Uy, Initial residual = 0.00346556130216, Final residual = 0.000297699575383, No Iterations 4
smoothSolver:  Solving for Uz, Initial residual = 0.00072874682017, Final residual = 6.55913506236e-05, No Iterations 4
GAMG:  Solving for p, Initial residual = 0.000787364339927, Final residual = 2.09275294233e-05, No Iterations 6
time step continuity errors : sum local = 0.000541237935901, global = 4.79169312651e-07, cumulative = 1.22926219575
ExecutionTime = 6.51 s  ClockTime = 7 s

Time = 100

smoothSolver:  Solving for Ux, Initial residual = 0.000185435586669, Final residual = 1.38037825136e-05, No Iterations 4
smoothSolver:  Solving for Uy, Initial residual = 0.00343961450331, Final residual = 0.000295963610358, No Iterations 4
smoothSolver:  Solving for Uz, Initial residual = 0.000721911446712, Final residual = 6.48875271758e-05, No Iterations 4
GAMG:  Solving for p, Initial residual = 0.000750136877246, Final residual = 2.5896845699e-05, No Iterations 6
time step continuity errors : sum local = 0.000665418865273, global = 2.41270920351e-06, cumulative = 1.22926460846
ExecutionTime = 6.58 s  ClockTime = 7 s

Time = 101

smoothSolver:  Solving for Ux, Initial residual = 0.000185762850936, Final residual = 1.366833937e-05, No Iterations 4
smoothSolver:  Solving for Uy, Initial residual = 0.00340311283305, Final residual = 0.000292965755791, No Iterations 4
smoothSolver:  Solving for Uz, Initial residual = 0.000714457303918, Final residual = 6.41745490114e-05, No Iterations 4
GAMG:  Solving for p, Initial residual = 0.000722905549474, Final residual = 2.63155981819e-05, No Iterations 6
time step continuity errors : sum local = 0.000671777257685, global = 2.89552294442e-06, cumulative = 1.22926750399
ExecutionTime = 6.67 s  ClockTime = 7 s

Time = 102

smoothSolver:  Solving for Ux, Initial residual = 0.000188365045572, Final residual = 1.35727714495e-05, No Iterations 4
smoothSolver:  Solving for Uy, Initial residual = 0.003357778388, Final residual = 0.000289014980285, No Iterations 4
smoothSolver:  Solving for Uz, Initial residual = 0.000706327008318, Final residual = 6.3542924509e-05, No Iterations 4
GAMG:  Solving for p, Initial residual = 0.000708540480689, Final residual = 2.12388841603e-05, No Iterations 6
time step continuity errors : sum local = 0.000538570557528, global = 1.26016776369e-06, cumulative = 1.22926876415
ExecutionTime = 6.73 s  ClockTime = 7 s

Time = 103

smoothSolver:  Solving for Ux, Initial residual = 0.000191460226939, Final residual = 1.35000681056e-05, No Iterations 4
smoothSolver:  Solving for Uy, Initial residual = 0.00330282470873, Final residual = 0.000284063128204, No Iterations 4
smoothSolver:  Solving for Uz, Initial residual = 0.000698260628813, Final residual = 6.29993684266e-05, No Iterations 4
GAMG:  Solving for p, Initial residual = 0.000701038352635, Final residual = 2.5224785002e-05, No Iterations 6
time step continuity errors : sum local = 0.000635375392013, global = 3.99795798988e-06, cumulative = 1.22927276211
ExecutionTime = 6.79 s  ClockTime = 7 s

Time = 104

smoothSolver:  Solving for Ux, Initial residual = 0.000185507954282, Final residual = 1.33071555389e-05, No Iterations 4
smoothSolver:  Solving for Uy, Initial residual = 0.0032662075804, Final residual = 0.000281058550385, No Iterations 4
smoothSolver:  Solving for Uz, Initial residual = 0.000691702974782, Final residual = 6.23565600621e-05, No Iterations 4
GAMG:  Solving for p, Initial residual = 0.000691643471901, Final residual = 2.07836553465e-05, No Iterations 6
time step continuity errors : sum local = 0.000520204022489, global = 1.69899444078e-06, cumulative = 1.22927446111
ExecutionTime = 6.87 s  ClockTime = 7 s

Time = 105

smoothSolver:  Solving for Ux, Initial residual = 0.000186314556921, Final residual = 1.3160806456e-05, No Iterations 4
smoothSolver:  Solving for Uy, Initial residual = 0.00322749869133, Final residual = 0.000277791945697, No Iterations 4
smoothSolver:  Solving for Uz, Initial residual = 0.00068513476624, Final residual = 6.17003991807e-05, No Iterations 4
GAMG:  Solving for p, Initial residual = 0.000675120939213, Final residual = 2.01778085692e-05, No Iterations 6
time step continuity errors : sum local = 0.00050179682547, global = -3.45330957101e-07, cumulative = 1.22927411577
ExecutionTime = 6.92 s  ClockTime = 7 s

Time = 106

smoothSolver:  Solving for Ux, Initial residual = 0.000187943750791, Final residual = 1.30432568466e-05, No Iterations 4
smoothSolver:  Solving for Uy, Initial residual = 0.00319100146711, Final residual = 0.00027416209244, No Iterations 4
smoothSolver:  Solving for Uz, Initial residual = 0.000678546122685, Final residual = 6.10963990121e-05, No Iterations 4
GAMG:  Solving for p, Initial residual = 0.000656656691746, Final residual = 1.90777381636e-05, No Iterations 6
time step continuity errors : sum local = 0.000471292668862, global = -5.40510971622e-08, cumulative = 1.22927406172
ExecutionTime = 7 s  ClockTime = 7 s

Time = 107

smoothSolver:  Solving for Ux, Initial residual = 0.000188414691789, Final residual = 1.2913502705e-05, No Iterations 4
smoothSolver:  Solving for Uy, Initial residual = 0.003169813793, Final residual = 0.000271730482985, No Iterations 4
smoothSolver:  Solving for Uz, Initial residual = 0.000671197080117, Final residual = 6.05516318363e-05, No Iterations 4
GAMG:  Solving for p, Initial residual = 0.000631785106643, Final residual = 1.84635199918e-05, No Iterations 6
time step continuity errors : sum local = 0.000453267538667, global = -6.65211604023e-07, cumulative = 1.22927339651
ExecutionTime = 7.06 s  ClockTime = 7 s

Time = 108

smoothSolver:  Solving for Ux, Initial residual = 0.000188252083231, Final residual = 1.27904398495e-05, No Iterations 4
smoothSolver:  Solving for Uy, Initial residual = 0.00314766922942, Final residual = 0.000269358054442, No Iterations 4
smoothSolver:  Solving for Uz, Initial residual = 0.00066401346911, Final residual = 6.00610174426e-05, No Iterations 4
GAMG:  Solving for p, Initial residual = 0.000611516029003, Final residual = 1.76383283991e-05, No Iterations 6
time step continuity errors : sum local = 0.000430470922871, global = 1.26869499368e-07, cumulative = 1.22927352338
ExecutionTime = 7.12 s  ClockTime = 7 s

Time = 109

smoothSolver:  Solving for Ux, Initial residual = 0.000179037763849, Final residual = 1.2577240532e-05, No Iterations 4
smoothSolver:  Solving for Uy, Initial residual = 0.0031122241402, Final residual = 0.00026717285883, No Iterations 4
smoothSolver:  Solving for Uz, Initial residual = 0.000658147641054, Final residual = 5.94237998718e-05, No Iterations 4
GAMG:  Solving for p, Initial residual = 0.000583637164405, Final residual = 1.94671533214e-05, No Iterations 6
time step continuity errors : sum local = 0.00047247159691, global = 1.9112018201e-07, cumulative = 1.2292737145
ExecutionTime = 7.18 s  ClockTime = 7 s

Time = 110

smoothSolver:  Solving for Ux, Initial residual = 0.000176207354538, Final residual = 1.2392170101e-05, No Iterations 4
smoothSolver:  Solving for Uy, Initial residual = 0.00307571022937, Final residual = 0.000264922583178, No Iterations 4
smoothSolver:  Solving for Uz, Initial residual = 0.000652452749126, Final residual = 5.86888682944e-05, No Iterations 4
GAMG:  Solving for p, Initial residual = 0.000556240973801, Final residual = 2.09069819844e-05, No Iterations 6
time step continuity errors : sum local = 0.000504470353979, global = 2.33965101527e-06, cumulative = 1.22927605415
ExecutionTime = 7.25 s  ClockTime = 7 s

Time = 111

smoothSolver:  Solving for Ux, Initial residual = 0.000177077043458, Final residual = 1.22541055374e-05, No Iterations 4
smoothSolver:  Solving for Uy, Initial residual = 0.00304219391047, Final residual = 0.000261830969854, No Iterations 4
smoothSolver:  Solving for Uz, Initial residual = 0.000646166171842, Final residual = 5.79966763835e-05, No Iterations 4
GAMG:  Solving for p, Initial residual = 0.000543350908318, Final residual = 1.90359390695e-05, No Iterations 6
time step continuity errors : sum local = 0.00045648474665, global = 4.70168411185e-06, cumulative = 1.22928075584
ExecutionTime = 7.32 s  ClockTime = 8 s

Time = 112

smoothSolver:  Solving for Ux, Initial residual = 0.000180337651637, Final residual = 1.21590867199e-05, No Iterations 4
smoothSolver:  Solving for Uy, Initial residual = 0.00301614415585, Final residual = 0.000259247427393, No Iterations 4
smoothSolver:  Solving for Uz, Initial residual = 0.000639119119315, Final residual = 5.74291373002e-05, No Iterations 4
GAMG:  Solving for p, Initial residual = 0.000542808643411, Final residual = 2.3838438405e-05, No Iterations 6
time step continuity errors : sum local = 0.000568087462081, global = 4.55708857356e-06, cumulative = 1.22928531293
ExecutionTime = 7.37 s  ClockTime = 8 s

Time = 113

smoothSolver:  Solving for Ux, Initial residual = 0.000179430860367, Final residual = 1.20323624664e-05, No Iterations 4
smoothSolver:  Solving for Uy, Initial residual = 0.00299719858912, Final residual = 0.000257799415414, No Iterations 4
smoothSolver:  Solving for Uz, Initial residual = 0.000632584430042, Final residual = 5.6936827558e-05, No Iterations 4
GAMG:  Solving for p, Initial residual = 0.00053693571009, Final residual = 1.66128573701e-05, No Iterations 6
time step continuity errors : sum local = 0.000393515950119, global = 1.771583341e-06, cumulative = 1.22928708451
ExecutionTime = 7.45 s  ClockTime = 8 s

Time = 114

smoothSolver:  Solving for Ux, Initial residual = 0.000182109411782, Final residual = 1.19197941223e-05, No Iterations 4
smoothSolver:  Solving for Uy, Initial residual = 0.00298980909649, Final residual = 0.000257357730445, No Iterations 4
smoothSolver:  Solving for Uz, Initial residual = 0.000626298396843, Final residual = 5.6491753005e-05, No Iterations 4
GAMG:  Solving for p, Initial residual = 0.000518093871913, Final residual = 1.49775868894e-05, No Iterations 6
time step continuity errors : sum local = 0.000352729659521, global = -4.63245209113e-07, cumulative = 1.22928662126
ExecutionTime = 7.5 s  ClockTime = 8 s

Time = 115

smoothSolver:  Solving for Ux, Initial residual = 0.000179966962663, Final residual = 1.17614772298e-05, No Iterations 4
smoothSolver:  Solving for Uy, Initial residual = 0.002972629427, Final residual = 0.000255941159546, No Iterations 4
smoothSolver:  Solving for Uz, Initial residual = 0.000620776384905, Final residual = 5.59976246122e-05, No Iterations 4
GAMG:  Solving for p, Initial residual = 0.000500703673554, Final residual = 1.4275526271e-05, No Iterations 6
time step continuity errors : sum local = 0.000334266551153, global = -2.34401628205e-07, cumulative = 1.22928638686
ExecutionTime = 7.58 s  ClockTime = 8 s

Time = 116

smoothSolver:  Solving for Ux, Initial residual = 0.000183771620596, Final residual = 1.1640755682e-05, No Iterations 4
smoothSolver:  Solving for Uy, Initial residual = 0.00295897195499, Final residual = 0.000254517962217, No Iterations 4
smoothSolver:  Solving for Uz, Initial residual = 0.000615244793277, Final residual = 5.55188062403e-05, No Iterations 4
GAMG:  Solving for p, Initial residual = 0.000488557762534, Final residual = 1.47965590371e-05, No Iterations 6
time step continuity errors : sum local = 0.000344618901637, global = -8.44030304786e-07, cumulative = 1.22928554283
ExecutionTime = 7.65 s  ClockTime = 8 s

Time = 117

smoothSolver:  Solving for Ux, Initial residual = 0.000182812639756, Final residual = 1.15004598684e-05, No Iterations 4
smoothSolver:  Solving for Uy, Initial residual = 0.00295500791828, Final residual = 0.000253921339332, No Iterations 4
smoothSolver:  Solving for Uz, Initial residual = 0.00060901197221, Final residual = 5.50394947405e-05, No Iterations 4
GAMG:  Solving for p, Initial residual = 0.00047626708152, Final residual = 1.43712791223e-05, No Iterations 6
time step continuity errors : sum local = 0.000333060213682, global = 1.2075351116e-06, cumulative = 1.22928675037
ExecutionTime = 7.71 s  ClockTime = 8 s

Time = 118

smoothSolver:  Solving for Ux, Initial residual = 0.000182259748505, Final residual = 1.13741057951e-05, No Iterations 4
smoothSolver:  Solving for Uy, Initial residual = 0.00293505077981, Final residual = 0.000251790703149, No Iterations 4
smoothSolver:  Solving for Uz, Initial residual = 0.000602816122634, Final residual = 5.45427652203e-05, No Iterations 4
GAMG:  Solving for p, Initial residual = 0.000461202562119, Final residual = 1.70211305844e-05, No Iterations 6
time step continuity errors : sum local = 0.00039248326795, global = 2.4498026402e-06, cumulative = 1.22928920017
ExecutionTime = 7.78 s  ClockTime = 8 s

Time = 119

smoothSolver:  Solving for Ux, Initial residual = 0.000169775385633, Final residual = 1.11290228906e-05, No Iterations 4
smoothSolver:  Solving for Uy, Initial residual = 0.00289092010413, Final residual = 0.000248931217426, No Iterations 4
smoothSolver:  Solving for Uz, Initial residual = 0.000598278977296, Final residual = 5.38519116374e-05, No Iterations 4
GAMG:  Solving for p, Initial residual = 0.000446113778971, Final residual = 1.85347429383e-05, No Iterations 6
time step continuity errors : sum local = 0.000425206401213, global = 3.50215055924e-06, cumulative = 1.22929270232
ExecutionTime = 7.85 s  ClockTime = 8 s

Time = 120

smoothSolver:  Solving for Ux, Initial residual = 0.000171946244766, Final residual = 1.10015449337e-05, No Iterations 4
smoothSolver:  Solving for Uy, Initial residual = 0.00285955783747, Final residual = 0.000246195792291, No Iterations 4
smoothSolver:  Solving for Uz, Initial residual = 0.000593107003247, Final residual = 5.31883642451e-05, No Iterations 4
GAMG:  Solving for p, Initial residual = 0.000435746410708, Final residual = 1.30059062838e-05, No Iterations 8
time step continuity errors : sum local = 0.000296688918851, global = 1.84160338611e-06, cumulative = 1.22929454392
ExecutionTime = 7.92 s  ClockTime = 8 s

Time = 121

smoothSolver:  Solving for Ux, Initial residual = 0.000175128351596, Final residual = 1.09242047339e-05, No Iterations 4
smoothSolver:  Solving for Uy, Initial residual = 0.00283047009113, Final residual = 0.000243137818774, No Iterations 4
smoothSolver:  Solving for Uz, Initial residual = 0.000586978008521, Final residual = 5.26299080146e-05, No Iterations 4
GAMG:  Solving for p, Initial residual = 0.000441997606007, Final residual = 1.71424774241e-05, No Iterations 6
time step continuity errors : sum local = 0.000388574961249, global = 2.61707058354e-06, cumulative = 1.22929716099
ExecutionTime = 7.97 s  ClockTime = 8 s

Time = 122

smoothSolver:  Solving for Ux, Initial residual = 0.000176030576937, Final residual = 1.08304345483e-05, No Iterations 4
smoothSolver:  Solving for Uy, Initial residual = 0.00280721438823, Final residual = 0.000241037395165, No Iterations 4
smoothSolver:  Solving for Uz, Initial residual = 0.00058095357444, Final residual = 5.2125996144e-05, No Iterations 4
GAMG:  Solving for p, Initial residual = 0.00043542805161, Final residual = 1.72131877782e-05, No Iterations 6
time step continuity errors : sum local = 0.000387963707908, global = 2.28254160791e-06, cumulative = 1.22929944354
ExecutionTime = 8.05 s  ClockTime = 8 s

Time = 123

smoothSolver:  Solving for Ux, Initial residual = 0.000176151447776, Final residual = 1.06919739181e-05, No Iterations 4
smoothSolver:  Solving for Uy, Initial residual = 0.00278667220076, Final residual = 0.00023946263827, No Iterations 4
smoothSolver:  Solving for Uz, Initial residual = 0.000574854364481, Final residual = 5.16492796966e-05, No Iterations 4
GAMG:  Solving for p, Initial residual = 0.000423494307143, Final residual = 1.38496110658e-05, No Iterations 6
time step continuity errors : sum local = 0.000310433603288, global = -8.53055575165e-07, cumulative = 1.22929859048
ExecutionTime = 8.1 s  ClockTime = 8 s

Time = 124

[...]
smoothSolver:  Solving for Uy, Initial residual = 0.000108494746001, Final residual = 9.80313604244e-06, No Iterations 4
smoothSolver:  Solving for Uz, Initial residual = 1.05726635589e-05, Final residual = 5.75770779777e-06, No Iterations 1
GAMG:  Solving for p, Initial residual = 1.18126874668e-06, Final residual = 4.62262457614e-07, No Iterations 2
time step continuity errors : sum local = 5.53907106036e-06, global = 1.10988706498e-07, cumulative = 1.22940600381
ExecutionTime = 60.86 s  ClockTime = 61 s

Time = 937

smoothSolver:  Solving for Ux, Initial residual = 1.74001952255e-05, Final residual = 9.26955357429e-06, No Iterations 1
smoothSolver:  Solving for Uy, Initial residual = 0.000108312026107, Final residual = 9.78674478306e-06, No Iterations 4
smoothSolver:  Solving for Uz, Initial residual = 1.05517936486e-05, Final residual = 5.74639147167e-06, No Iterations 1
GAMG:  Solving for p, Initial residual = 1.17874997465e-06, Final residual = 4.61007703455e-07, No Iterations 2
time step continuity errors : sum local = 5.52382991919e-06, global = 1.1093438425e-07, cumulative = 1.22940611474
ExecutionTime = 60.93 s  ClockTime = 61 s

Time = 938

smoothSolver:  Solving for Ux, Initial residual = 1.73618443244e-05, Final residual = 9.253702455e-06, No Iterations 1
smoothSolver:  Solving for Uy, Initial residual = 0.000108129673528, Final residual = 9.77038652889e-06, No Iterations 4
smoothSolver:  Solving for Uz, Initial residual = 1.0530982215e-05, Final residual = 5.73510627402e-06, No Iterations 1
GAMG:  Solving for p, Initial residual = 1.17624998733e-06, Final residual = 4.59766965157e-07, No Iterations 2
time step continuity errors : sum local = 5.50875846842e-06, global = 1.10889872537e-07, cumulative = 1.22940622563
ExecutionTime = 61 s  ClockTime = 61 s

Time = 939

smoothSolver:  Solving for Ux, Initial residual = 1.73412899435e-05, Final residual = 9.24263711349e-06, No Iterations 1
smoothSolver:  Solving for Uy, Initial residual = 0.000107947704398, Final residual = 9.75406239196e-06, No Iterations 4
smoothSolver:  Solving for Uz, Initial residual = 1.05102282336e-05, Final residual = 5.72385198122e-06, No Iterations 1
GAMG:  Solving for p, Initial residual = 1.17377243299e-06, Final residual = 4.64484935079e-07, No Iterations 2
time step continuity errors : sum local = 5.56508132978e-06, global = 1.11513641503e-07, cumulative = 1.22940633715
ExecutionTime = 61.06 s  ClockTime = 61 s

Time = 940

smoothSolver:  Solving for Ux, Initial residual = 1.73247138202e-05, Final residual = 9.23031531582e-06, No Iterations 1
smoothSolver:  Solving for Uy, Initial residual = 0.000107761683286, Final residual = 9.73738053588e-06, No Iterations 4
smoothSolver:  Solving for Uz, Initial residual = 1.04895637659e-05, Final residual = 5.71264699761e-06, No Iterations 1
GAMG:  Solving for p, Initial residual = 1.17484786668e-06, Final residual = 4.59593087541e-07, No Iterations 2
time step continuity errors : sum local = 5.5062687239e-06, global = 1.12644153771e-07, cumulative = 1.22940644979
ExecutionTime = 61.13 s  ClockTime = 61 s

Time = 941

smoothSolver:  Solving for Ux, Initial residual = 1.7293726695e-05, Final residual = 9.2122582181e-06, No Iterations 1
smoothSolver:  Solving for Uy, Initial residual = 0.000107584071977, Final residual = 9.72142994178e-06, No Iterations 4
smoothSolver:  Solving for Uz, Initial residual = 1.04688773713e-05, Final residual = 5.70143079676e-06, No Iterations 1
GAMG:  Solving for p, Initial residual = 1.17401502133e-06, Final residual = 4.58687620146e-07, No Iterations 2
time step continuity errors : sum local = 5.49521990949e-06, global = 1.10069029511e-07, cumulative = 1.22940655986
ExecutionTime = 61.19 s  ClockTime = 61 s

Time = 942

smoothSolver:  Solving for Ux, Initial residual = 1.72743443498e-05, Final residual = 9.200466603e-06, No Iterations 1
smoothSolver:  Solving for Uy, Initial residual = 0.000107406309796, Final residual = 9.70549334535e-06, No Iterations 4
smoothSolver:  Solving for Uz, Initial residual = 1.044829113e-05, Final residual = 5.69026626139e-06, No Iterations 1
GAMG:  Solving for p, Initial residual = 1.171340213e-06, Final residual = 4.58142944436e-07, No Iterations 2
time step continuity errors : sum local = 5.48849307005e-06, global = 1.08866873852e-07, cumulative = 1.22940666873
ExecutionTime = 61.25 s  ClockTime = 62 s

Time = 943

smoothSolver:  Solving for Ux, Initial residual = 1.72486042461e-05, Final residual = 9.18619630388e-06, No Iterations 1
smoothSolver:  Solving for Uy, Initial residual = 0.000107227488423, Final residual = 9.68944441075e-06, No Iterations 4
smoothSolver:  Solving for Uz, Initial residual = 1.04277448921e-05, Final residual = 5.67912302028e-06, No Iterations 1
GAMG:  Solving for p, Initial residual = 1.16607365741e-06, Final residual = 4.54200548537e-07, No Iterations 2
time step continuity errors : sum local = 5.4410635697e-06, global = 1.06650905157e-07, cumulative = 1.22940677538
ExecutionTime = 61.34 s  ClockTime = 62 s

Time = 944

smoothSolver:  Solving for Ux, Initial residual = 1.72265694944e-05, Final residual = 9.17223888912e-06, No Iterations 1
smoothSolver:  Solving for Uy, Initial residual = 0.000107046508893, Final residual = 9.67321741296e-06, No Iterations 4
smoothSolver:  Solving for Uz, Initial residual = 1.04072842753e-05, Final residual = 5.66802614509e-06, No Iterations 1
GAMG:  Solving for p, Initial residual = 1.16088162521e-06, Final residual = 4.51068902047e-07, No Iterations 2
time step continuity errors : sum local = 5.40335002375e-06, global = 1.06532912503e-07, cumulative = 1.22940688191
ExecutionTime = 61.43 s  ClockTime = 62 s

Time = 945

smoothSolver:  Solving for Ux, Initial residual = 1.71958846888e-05, Final residual = 9.1585553121e-06, No Iterations 1
smoothSolver:  Solving for Uy, Initial residual = 0.00010686500589, Final residual = 9.65692981095e-06, No Iterations 4
smoothSolver:  Solving for Uz, Initial residual = 1.03868840648e-05, Final residual = 5.65696230633e-06, No Iterations 1
GAMG:  Solving for p, Initial residual = 1.15613471328e-06, Final residual = 4.47033337468e-07, No Iterations 2
time step continuity errors : sum local = 5.35481276243e-06, global = 1.06614438448e-07, cumulative = 1.22940698852
ExecutionTime = 61.53 s  ClockTime = 62 s

Time = 946

smoothSolver:  Solving for Ux, Initial residual = 1.71734214549e-05, Final residual = 9.14548676625e-06, No Iterations 1
smoothSolver:  Solving for Uy, Initial residual = 0.000106683481198, Final residual = 9.64065043534e-06, No Iterations 4
smoothSolver:  Solving for Uz, Initial residual = 1.03665501042e-05, Final residual = 5.64593527634e-06, No Iterations 1
GAMG:  Solving for p, Initial residual = 1.15244824735e-06, Final residual = 4.53201476231e-07, No Iterations 2
time step continuity errors : sum local = 5.42850211101e-06, global = 1.09691341616e-07, cumulative = 1.22940709822
ExecutionTime = 61.59 s  ClockTime = 62 s

Time = 947

smoothSolver:  Solving for Ux, Initial residual = 1.71351606194e-05, Final residual = 9.12825484538e-06, No Iterations 1
smoothSolver:  Solving for Uy, Initial residual = 0.000106498752319, Final residual = 9.62407152429e-06, No Iterations 4
smoothSolver:  Solving for Uz, Initial residual = 1.03462887166e-05, Final residual = 5.6349492361e-06, No Iterations 1
GAMG:  Solving for p, Initial residual = 1.15551235242e-06, Final residual = 4.49211181356e-07, No Iterations 2
time step continuity errors : sum local = 5.38051365039e-06, global = 1.13603306603e-07, cumulative = 1.22940721182
ExecutionTime = 61.65 s  ClockTime = 62 s

Time = 948

smoothSolver:  Solving for Ux, Initial residual = 1.71202871227e-05, Final residual = 9.11919621629e-06, No Iterations 1
smoothSolver:  Solving for Uy, Initial residual = 0.000106323752281, Final residual = 9.60835477605e-06, No Iterations 4
smoothSolver:  Solving for Uz, Initial residual = 1.03259998104e-05, Final residual = 5.62394885214e-06, No Iterations 1
GAMG:  Solving for p, Initial residual = 1.15631156404e-06, Final residual = 4.5004792825e-07, No Iterations 2
time step continuity errors : sum local = 5.39034511275e-06, global = 1.13854574936e-07, cumulative = 1.22940732567
ExecutionTime = 61.72 s  ClockTime = 62 s

Time = 949

smoothSolver:  Solving for Ux, Initial residual = 1.70923885927e-05, Final residual = 9.10278807992e-06, No Iterations 1
smoothSolver:  Solving for Uy, Initial residual = 0.00010614979147, Final residual = 9.59275794596e-06, No Iterations 4
smoothSolver:  Solving for Uz, Initial residual = 1.03057855043e-05, Final residual = 5.61298688473e-06, No Iterations 1
GAMG:  Solving for p, Initial residual = 1.15430629937e-06, Final residual = 4.50224293151e-07, No Iterations 2
time step continuity errors : sum local = 5.39226531933e-06, global = 1.11264281915e-07, cumulative = 1.22940743694
ExecutionTime = 61.77 s  ClockTime = 62 s

Time = 950

smoothSolver:  Solving for Ux, Initial residual = 1.70537846852e-05, Final residual = 9.08827823553e-06, No Iterations 1
smoothSolver:  Solving for Uy, Initial residual = 0.000105972661067, Final residual = 9.57685160795e-06, No Iterations 4
smoothSolver:  Solving for Uz, Initial residual = 1.0285624011e-05, Final residual = 5.60205279535e-06, No Iterations 1
GAMG:  Solving for p, Initial residual = 1.15108624585e-06, Final residual = 4.49084581118e-07, No Iterations 2
time step continuity errors : sum local = 5.37842327788e-06, global = 1.09161404123e-07, cumulative = 1.2294075461
ExecutionTime = 61.84 s  ClockTime = 62 s

Time = 951

smoothSolver:  Solving for Ux, Initial residual = 1.70442254103e-05, Final residual = 9.0759265585e-06, No Iterations 1
smoothSolver:  Solving for Uy, Initial residual = 0.00010579663431, Final residual = 9.56106768439e-06, No Iterations 4
smoothSolver:  Solving for Uz, Initial residual = 1.02655360138e-05, Final residual = 5.59115803209e-06, No Iterations 1
GAMG:  Solving for p, Initial residual = 1.14690630187e-06, Final residual = 4.44111253429e-07, No Iterations 2
time step continuity errors : sum local = 5.31867053709e-06, global = 1.05443204242e-07, cumulative = 1.22940765154
ExecutionTime = 61.9 s  ClockTime = 62 s

Time = 952

smoothSolver:  Solving for Ux, Initial residual = 1.70167467524e-05, Final residual = 9.06310410123e-06, No Iterations 1
smoothSolver:  Solving for Uy, Initial residual = 0.000105617531476, Final residual = 9.54499240452e-06, No Iterations 4
smoothSolver:  Solving for Uz, Initial residual = 1.02455249863e-05, Final residual = 5.58030462907e-06, No Iterations 1
GAMG:  Solving for p, Initial residual = 1.1425340662e-06, Final residual = 4.44838860733e-07, No Iterations 2
time step continuity errors : sum local = 5.32719552371e-06, global = 1.06759567704e-07, cumulative = 1.2294077583
ExecutionTime = 61.97 s  ClockTime = 62 s

Time = 953

smoothSolver:  Solving for Ux, Initial residual = 1.69861242175e-05, Final residual = 9.04989618538e-06, No Iterations 1
smoothSolver:  Solving for Uy, Initial residual = 0.00010544198339, Final residual = 9.52923553582e-06, No Iterations 4
smoothSolver:  Solving for Uz, Initial residual = 1.02255569411e-05, Final residual = 5.56947449568e-06, No Iterations 1
GAMG:  Solving for p, Initial residual = 1.13933298596e-06, Final residual = 4.46936275373e-07, No Iterations 2
time step continuity errors : sum local = 5.35212315021e-06, global = 1.05724513187e-07, cumulative = 1.22940786403
ExecutionTime = 62.04 s  ClockTime = 62 s

Time = 954

smoothSolver:  Solving for Ux, Initial residual = 1.69715031172e-05, Final residual = 9.03446153942e-06, No Iterations 1
smoothSolver:  Solving for Uy, Initial residual = 0.000105260202638, Final residual = 9.51292054489e-06, No Iterations 4
smoothSolver:  Solving for Uz, Initial residual = 1.02056806447e-05, Final residual = 5.55869521518e-06, No Iterations 1
GAMG:  Solving for p, Initial residual = 1.13948087561e-06, Final residual = 4.39796926527e-07, No Iterations 2
time step continuity errors : sum local = 5.26644322408e-06, global = 1.10005797085e-07, cumulative = 1.22940797403
ExecutionTime = 62.12 s  ClockTime = 62 s

Time = 955

smoothSolver:  Solving for Ux, Initial residual = 1.69345986769e-05, Final residual = 9.01912285832e-06, No Iterations 1
smoothSolver:  Solving for Uy, Initial residual = 0.000105085880772, Final residual = 9.4972650291e-06, No Iterations 4
smoothSolver:  Solving for Uz, Initial residual = 1.01857981735e-05, Final residual = 5.5479131022e-06, No Iterations 1
GAMG:  Solving for p, Initial residual = 1.13634980369e-06, Final residual = 4.38018886864e-07, No Iterations 2
time step continuity errors : sum local = 5.2449694496e-06, global = 1.09635228784e-07, cumulative = 1.22940808367
ExecutionTime = 62.17 s  ClockTime = 62 s

Time = 956

smoothSolver:  Solving for Ux, Initial residual = 1.69257256002e-05, Final residual = 9.00812311331e-06, No Iterations 1
smoothSolver:  Solving for Uy, Initial residual = 0.000104910952277, Final residual = 9.4815696866e-06, No Iterations 4
smoothSolver:  Solving for Uz, Initial residual = 1.01659883062e-05, Final residual = 5.53716952827e-06, No Iterations 1
GAMG:  Solving for p, Initial residual = 1.13342918698e-06, Final residual = 4.38976848098e-07, No Iterations 2
time step continuity errors : sum local = 5.25625759656e-06, global = 1.09954878998e-07, cumulative = 1.22940819362
ExecutionTime = 62.23 s  ClockTime = 62 s

Time = 957

smoothSolver:  Solving for Ux, Initial residual = 1.68922598915e-05, Final residual = 8.99334366748e-06, No Iterations 1
smoothSolver:  Solving for Uy, Initial residual = 0.00010473600499, Final residual = 9.46585393701e-06, No Iterations 4
smoothSolver:  Solving for Uz, Initial residual = 1.0146216494e-05, Final residual = 5.52644572382e-06, No Iterations 1
GAMG:  Solving for p, Initial residual = 1.13126677946e-06, Final residual = 4.39523440371e-07, No Iterations 2
time step continuity errors : sum local = 5.2626199449e-06, global = 1.12039611674e-07, cumulative = 1.22940830566
ExecutionTime = 62.3 s  ClockTime = 63 s

Time = 958

smoothSolver:  Solving for Ux, Initial residual = 1.68697243709e-05, Final residual = 8.97970639835e-06, No Iterations 1
smoothSolver:  Solving for Uy, Initial residual = 0.000104562162638, Final residual = 9.45025307663e-06, No Iterations 4
smoothSolver:  Solving for Uz, Initial residual = 1.01265136151e-05, Final residual = 5.51575848721e-06, No Iterations 1
GAMG:  Solving for p, Initial residual = 1.12956048041e-06, Final residual = 4.36774073684e-07, No Iterations 2
time step continuity errors : sum local = 5.22951901929e-06, global = 1.10190138577e-07, cumulative = 1.22940841585
ExecutionTime = 62.36 s  ClockTime = 63 s

Time = 959

smoothSolver:  Solving for Ux, Initial residual = 1.68547543212e-05, Final residual = 8.96856631498e-06, No Iterations 1
smoothSolver:  Solving for Uy, Initial residual = 0.000104386908321, Final residual = 9.43452287065e-06, No Iterations 4
smoothSolver:  Solving for Uz, Initial residual = 1.01068707069e-05, Final residual = 5.50510496809e-06, No Iterations 1
GAMG:  Solving for p, Initial residual = 1.12688460809e-06, Final residual = 4.3641186056e-07, No Iterations 2
time step continuity errors : sum local = 5.22500216509e-06, global = 1.11358335157e-07, cumulative = 1.22940852721
ExecutionTime = 62.42 s  ClockTime = 63 s

Time = 960

smoothSolver:  Solving for Ux, Initial residual = 1.68065608615e-05, Final residual = 8.95489700953e-06, No Iterations 1
smoothSolver:  Solving for Uy, Initial residual = 0.000104213490904, Final residual = 9.41896266681e-06, No Iterations 4
smoothSolver:  Solving for Uz, Initial residual = 1.00872748543e-05, Final residual = 5.49447604443e-06, No Iterations 1
GAMG:  Solving for p, Initial residual = 1.1244292477e-06, Final residual = 4.34906465124e-07, No Iterations 2
time step continuity errors : sum local = 5.20679958665e-06, global = 1.13388424483e-07, cumulative = 1.2294086406
ExecutionTime = 62.5 s  ClockTime = 63 s

Time = 961

smoothSolver:  Solving for Ux, Initial residual = 1.67702126261e-05, Final residual = 8.93727890894e-06, No Iterations 1
smoothSolver:  Solving for Uy, Initial residual = 0.00010403845182, Final residual = 9.40325612029e-06, No Iterations 4
smoothSolver:  Solving for Uz, Initial residual = 1.00677272349e-05, Final residual = 5.48387347048e-06, No Iterations 1
GAMG:  Solving for p, Initial residual = 1.12039228477e-06, Final residual = 4.31792424364e-07, No Iterations 2
time step continuity errors : sum local = 5.16934004137e-06, global = 1.10906784949e-07, cumulative = 1.22940875151
ExecutionTime = 62.55 s  ClockTime = 63 s

Time = 962

smoothSolver:  Solving for Ux, Initial residual = 1.67674853626e-05, Final residual = 8.92604665791e-06, No Iterations 1
smoothSolver:  Solving for Uy, Initial residual = 0.000103864026155, Final residual = 9.38759563662e-06, No Iterations 4
smoothSolver:  Solving for Uz, Initial residual = 1.00482306199e-05, Final residual = 5.47329866947e-06, No Iterations 1
GAMG:  Solving for p, Initial residual = 1.1184091814e-06, Final residual = 4.312866611e-07, No Iterations 2
time step continuity errors : sum local = 5.16310891844e-06, global = 1.1227921591e-07, cumulative = 1.22940886378
ExecutionTime = 62.61 s  ClockTime = 63 s

Time = 963

smoothSolver:  Solving for Ux, Initial residual = 1.67372038604e-05, Final residual = 8.91311380618e-06, No Iterations 1
smoothSolver:  Solving for Uy, Initial residual = 0.000103691101674, Final residual = 9.37207060496e-06, No Iterations 4
smoothSolver:  Solving for Uz, Initial residual = 1.00287974081e-05, Final residual = 5.46275819461e-06, No Iterations 1
GAMG:  Solving for p, Initial residual = 1.11702213952e-06, Final residual = 4.30456607138e-07, No Iterations 2
time step continuity errors : sum local = 5.15299703817e-06, global = 1.12785972048e-07, cumulative = 1.22940897657
ExecutionTime = 62.69 s  ClockTime = 63 s

Time = 964

smoothSolver:  Solving for Ux, Initial residual = 1.67101690372e-05, Final residual = 8.898919036e-06, No Iterations 1
smoothSolver:  Solving for Uy, Initial residual = 0.000103518099615, Final residual = 9.35654094242e-06, No Iterations 4
smoothSolver:  Solving for Uz, Initial residual = 1.00094103805e-05, Final residual = 5.45224295554e-06, No Iterations 1
GAMG:  Solving for p, Initial residual = 1.11534873507e-06, Final residual = 4.30053067716e-07, No Iterations 2
time step continuity errors : sum local = 5.14799222406e-06, global = 1.12877577678e-07, cumulative = 1.22940908945
ExecutionTime = 62.74 s  ClockTime = 63 s

Time = 965

smoothSolver:  Solving for Ux, Initial residual = 1.66972898369e-05, Final residual = 8.88662602279e-06, No Iterations 1
smoothSolver:  Solving for Uy, Initial residual = 0.000103345739302, Final residual = 9.3410694032e-06, No Iterations 4
smoothSolver:  Solving for Uz, Initial residual = 9.9900751192e-06, Final residual = 9.9900751192e-06, No Iterations 0
GAMG:  Solving for p, Initial residual = 2.68440617432e-05, Final residual = 9.62879465544e-07, No Iterations 10
time step continuity errors : sum local = 1.15257994e-05, global = 8.80740650201e-08, cumulative = 1.22940917752
ExecutionTime = 62.82 s  ClockTime = 63 s

Time = 966

smoothSolver:  Solving for Ux, Initial residual = 1.6670204055e-05, Final residual = 8.87122524855e-06, No Iterations 1
smoothSolver:  Solving for Uy, Initial residual = 8.333626107e-05, Final residual = 7.46281769737e-06, No Iterations 4
smoothSolver:  Solving for Uz, Initial residual = 1.02535990758e-05, Final residual = 5.58163679837e-06, No Iterations 1
GAMG:  Solving for p, Initial residual = 1.73137596858e-05, Final residual = 9.97055917496e-07, No Iterations 8
time step continuity errors : sum local = 1.19342156631e-05, global = 6.52376611368e-08, cumulative = 1.22940924276
ExecutionTime = 62.89 s  ClockTime = 63 s


SIMPLE solution converged in 966 iterations

    writing object shearStress
End

Finalising parallel run
