/*---------------------------------------------------------------------------*\
  =========                 |
  \\      /  F ield         | OpenFOAM: The Open Source CFD Toolbox
   \\    /   O peration     | Website:  https://openfoam.org
    \\  /    A nd           | Version:  9
     \\/     M anipulation  |
\*---------------------------------------------------------------------------*/
Build  : 9-b456138dc4bc
Exec   : simpleFoam -parallel
Date   : Jul 05 2022
Time   : 15:35:51
Host   : "KORIN-LAB"
PID    : 1757
I/O    : uncollated
Case   : /home/colin/OpenFOAM/colin-9/run/wsl/wedge_needle/concentration/1/90_needle_layer
nProcs : 6
Slaves : 
5
(
"KORIN-LAB.1758"
"KORIN-LAB.1759"
"KORIN-LAB.1760"
"KORIN-LAB.1761"
"KORIN-LAB.1762"
)

Pstream initialised with:
    floatTransfer      : 0
    nProcsSimpleSum    : 0
    commsType          : nonBlocking
    polling iterations : 0
sigFpe : Enabling floating point exception trapping (FOAM_SIGFPE).
fileModificationChecking : Monitoring run-time modified files using timeStampMaster (fileModificationSkew 10)
allowSystemOperations : Allowing user-supplied system call operations

// * * * * * * * * * * * * * * * * * * * * * * * * * * * * * * * * * * * * * //
Create time

Create mesh for time = 0


SIMPLE: Convergence criteria found
        p: tolerance 0.001
        U: tolerance 0.0001
        "(k|epsilon|omega|f|v2)": tolerance 0.0001

Reading field p

Reading field U

Reading/calculating face flux field phi

Selecting incompressible transport model powerLaw
Selecting turbulence model type laminar
Selecting laminar stress model Stokes
No MRF models present

No fvModels present
No fvConstraints present

Starting time loop

wallShearStress wallShearStress:
    processing all wall patches

Time = 1

smoothSolver:  Solving for Ux, Initial residual = 0.989717021828, Final residual = 0.0799734357953, No Iterations 2
smoothSolver:  Solving for Uy, Initial residual = 1, Final residual = 0.0572562251193, No Iterations 2
smoothSolver:  Solving for Uz, Initial residual = 1, Final residual = 0.0816529803376, No Iterations 2
GAMG:  Solving for p, Initial residual = 0.999999999986, Final residual = 0.0422122107321, No Iterations 32
time step continuity errors : sum local = 0.0219270110719, global = -0.000279621436992, cumulative = -0.000279621436992
ExecutionTime = 0.14 s  ClockTime = 0 s

Time = 2

smoothSolver:  Solving for Ux, Initial residual = 0.963478389424, Final residual = 0.0837636920426, No Iterations 3
smoothSolver:  Solving for Uy, Initial residual = 0.999264247799, Final residual = 0.087175220218, No Iterations 4
smoothSolver:  Solving for Uz, Initial residual = 0.999903923432, Final residual = 0.0849791600847, No Iterations 4
GAMG:  Solving for p, Initial residual = 0.00613951980626, Final residual = 0.000240292524236, No Iterations 10
time step continuity errors : sum local = 2287.26826225, global = 25.5474221771, cumulative = 25.5471425557
ExecutionTime = 0.2 s  ClockTime = 0 s

Time = 3

smoothSolver:  Solving for Ux, Initial residual = 0.65399875342, Final residual = 0.0470266810031, No Iterations 2
smoothSolver:  Solving for Uy, Initial residual = 0.131822520691, Final residual = 0.0105709664677, No Iterations 4
smoothSolver:  Solving for Uz, Initial residual = 0.111661928633, Final residual = 0.00821206223112, No Iterations 4
GAMG:  Solving for p, Initial residual = 0.0296234013676, Final residual = 0.00112991203827, No Iterations 17
time step continuity errors : sum local = 1296.30684118, global = 24.8546846268, cumulative = 50.4018271825
ExecutionTime = 0.27 s  ClockTime = 0 s

Time = 4

smoothSolver:  Solving for Ux, Initial residual = 0.166789120623, Final residual = 0.00397452230048, No Iterations 2
smoothSolver:  Solving for Uy, Initial residual = 0.106141708128, Final residual = 0.00758973597089, No Iterations 4
smoothSolver:  Solving for Uz, Initial residual = 0.0513764198491, Final residual = 0.00462045165434, No Iterations 3
GAMG:  Solving for p, Initial residual = 0.176693726621, Final residual = 0.00581755892755, No Iterations 7
time step continuity errors : sum local = 1564.03558743, global = 56.1988939518, cumulative = 106.600721134
ExecutionTime = 0.34 s  ClockTime = 0 s

Time = 5

smoothSolver:  Solving for Ux, Initial residual = 0.103415304334, Final residual = 0.00984643397586, No Iterations 1
smoothSolver:  Solving for Uy, Initial residual = 0.094199899376, Final residual = 0.00701833929255, No Iterations 3
smoothSolver:  Solving for Uz, Initial residual = 0.118757023899, Final residual = 0.00701939623545, No Iterations 4
GAMG:  Solving for p, Initial residual = 0.060902153736, Final residual = 0.00169199958597, No Iterations 9
time step continuity errors : sum local = 785.647567203, global = 4.98039075898, cumulative = 111.581111893
ExecutionTime = 0.41 s  ClockTime = 0 s

Time = 6

smoothSolver:  Solving for Ux, Initial residual = 0.0787707976369, Final residual = 0.00221807037269, No Iterations 2
smoothSolver:  Solving for Uy, Initial residual = 0.411290927754, Final residual = 0.0407042052136, No Iterations 3
smoothSolver:  Solving for Uz, Initial residual = 0.158880458321, Final residual = 0.00891462611303, No Iterations 4
GAMG:  Solving for p, Initial residual = 0.0279259575977, Final residual = 0.00102279603109, No Iterations 9
time step continuity errors : sum local = 782.918069848, global = 19.8223363787, cumulative = 131.403448272
ExecutionTime = 0.48 s  ClockTime = 0 s

Time = 7

smoothSolver:  Solving for Ux, Initial residual = 0.0643798981809, Final residual = 0.00202921130406, No Iterations 2
smoothSolver:  Solving for Uy, Initial residual = 0.401842772335, Final residual = 0.0232967887182, No Iterations 4
smoothSolver:  Solving for Uz, Initial residual = 0.0940704861572, Final residual = 0.00511070100597, No Iterations 4
GAMG:  Solving for p, Initial residual = 0.073458756274, Final residual = 0.0025732284832, No Iterations 11
time step continuity errors : sum local = 823.149780909, global = -27.4566534784, cumulative = 103.946794794
ExecutionTime = 0.55 s  ClockTime = 0 s

Time = 8

smoothSolver:  Solving for Ux, Initial residual = 0.0485314513493, Final residual = 0.00150326666823, No Iterations 2
smoothSolver:  Solving for Uy, Initial residual = 0.144691410074, Final residual = 0.00913755451223, No Iterations 4
smoothSolver:  Solving for Uz, Initial residual = 0.0423620614458, Final residual = 0.00406190618116, No Iterations 3
GAMG:  Solving for p, Initial residual = 0.138542238432, Final residual = 0.00658019340429, No Iterations 9
time step continuity errors : sum local = 939.145595502, global = 40.8145076223, cumulative = 144.761302416
ExecutionTime = 0.63 s  ClockTime = 0 s

Time = 9

smoothSolver:  Solving for Ux, Initial residual = 0.0344980246283, Final residual = 0.00103223445808, No Iterations 2
smoothSolver:  Solving for Uy, Initial residual = 0.076193491332, Final residual = 0.00698813059538, No Iterations 3
smoothSolver:  Solving for Uz, Initial residual = 0.0292400248161, Final residual = 0.00257087765375, No Iterations 3
GAMG:  Solving for p, Initial residual = 0.165396436207, Final residual = 0.00429935591903, No Iterations 9
time step continuity errors : sum local = 361.560885616, global = 8.15416018781, cumulative = 152.915462604
ExecutionTime = 0.7 s  ClockTime = 0 s

Time = 10

smoothSolver:  Solving for Ux, Initial residual = 0.0250558212303, Final residual = 0.000730785694567, No Iterations 2
smoothSolver:  Solving for Uy, Initial residual = 0.203656228652, Final residual = 0.0116102561993, No Iterations 4
smoothSolver:  Solving for Uz, Initial residual = 0.0468416144504, Final residual = 0.00265317719463, No Iterations 4
GAMG:  Solving for p, Initial residual = 0.0730379862517, Final residual = 0.00160312415388, No Iterations 8
time step continuity errors : sum local = 210.028638594, global = 4.20053422344, cumulative = 157.115996827
ExecutionTime = 0.77 s  ClockTime = 0 s

Time = 11

smoothSolver:  Solving for Ux, Initial residual = 0.0210534110323, Final residual = 0.00060913660034, No Iterations 2
smoothSolver:  Solving for Uy, Initial residual = 0.481808574908, Final residual = 0.0307359952413, No Iterations 4
smoothSolver:  Solving for Uz, Initial residual = 0.04653021212, Final residual = 0.00278737052372, No Iterations 4
GAMG:  Solving for p, Initial residual = 0.0749197841101, Final residual = 0.00299493011131, No Iterations 9
time step continuity errors : sum local = 341.169581621, global = 2.48308599893, cumulative = 159.599082826
ExecutionTime = 0.84 s  ClockTime = 0 s

Time = 12

smoothSolver:  Solving for Ux, Initial residual = 0.0191856111399, Final residual = 0.000538233431186, No Iterations 2
smoothSolver:  Solving for Uy, Initial residual = 0.261084151971, Final residual = 0.016868563013, No Iterations 4
smoothSolver:  Solving for Uz, Initial residual = 0.0354308197353, Final residual = 0.00212221558354, No Iterations 4
GAMG:  Solving for p, Initial residual = 0.11507997983, Final residual = 0.00283827598466, No Iterations 9
time step continuity errors : sum local = 198.817688862, global = 5.31656436443, cumulative = 164.91564719
ExecutionTime = 0.91 s  ClockTime = 0 s

Time = 13

smoothSolver:  Solving for Ux, Initial residual = 0.0175794476306, Final residual = 0.000495469659385, No Iterations 2
smoothSolver:  Solving for Uy, Initial residual = 0.123374055086, Final residual = 0.00718152830874, No Iterations 4
smoothSolver:  Solving for Uz, Initial residual = 0.0233995636512, Final residual = 0.00126602202804, No Iterations 4
GAMG:  Solving for p, Initial residual = 0.201543986384, Final residual = 0.00521795288358, No Iterations 12
time step continuity errors : sum local = 188.615754118, global = -0.323722800922, cumulative = 164.59192439
ExecutionTime = 0.98 s  ClockTime = 1 s

Time = 14

smoothSolver:  Solving for Ux, Initial residual = 0.0157962166027, Final residual = 0.000483544212247, No Iterations 2
smoothSolver:  Solving for Uy, Initial residual = 0.114485356642, Final residual = 0.00593943056758, No Iterations 4
smoothSolver:  Solving for Uz, Initial residual = 0.0216020102081, Final residual = 0.00209300895738, No Iterations 3
GAMG:  Solving for p, Initial residual = 0.099397147395, Final residual = 0.00432606093721, No Iterations 7
time step continuity errors : sum local = 268.488276808, global = 5.3076515738, cumulative = 169.899575963
ExecutionTime = 1.05 s  ClockTime = 1 s

Time = 15

smoothSolver:  Solving for Ux, Initial residual = 0.0140917456051, Final residual = 0.000486452240816, No Iterations 2
smoothSolver:  Solving for Uy, Initial residual = 0.224754251098, Final residual = 0.0131530478756, No Iterations 4
smoothSolver:  Solving for Uz, Initial residual = 0.0204610096871, Final residual = 0.00192376899019, No Iterations 3
GAMG:  Solving for p, Initial residual = 0.0863925701251, Final residual = 0.00244466590724, No Iterations 7
time step continuity errors : sum local = 150.989219462, global = -5.53587741861, cumulative = 164.363698545
ExecutionTime = 1.12 s  ClockTime = 1 s

Time = 16

smoothSolver:  Solving for Ux, Initial residual = 0.0126615203612, Final residual = 0.000471156372805, No Iterations 2
smoothSolver:  Solving for Uy, Initial residual = 0.173269484473, Final residual = 0.0100061272455, No Iterations 4
smoothSolver:  Solving for Uz, Initial residual = 0.0195037702139, Final residual = 0.00181172840656, No Iterations 3
GAMG:  Solving for p, Initial residual = 0.0824233605419, Final residual = 0.00321863462149, No Iterations 7
time step continuity errors : sum local = 192.817515972, global = -5.49942215323, cumulative = 158.864276391
ExecutionTime = 1.19 s  ClockTime = 1 s

Time = 17

smoothSolver:  Solving for Ux, Initial residual = 0.0114508135265, Final residual = 0.000454184870405, No Iterations 2
smoothSolver:  Solving for Uy, Initial residual = 0.114822906584, Final residual = 0.00616744165494, No Iterations 4
smoothSolver:  Solving for Uz, Initial residual = 0.017536456447, Final residual = 0.00158644048652, No Iterations 3
GAMG:  Solving for p, Initial residual = 0.100249404151, Final residual = 0.00484532084839, No Iterations 7
time step continuity errors : sum local = 227.872897738, global = -1.08428537919, cumulative = 157.779991012
ExecutionTime = 1.26 s  ClockTime = 1 s

Time = 18

smoothSolver:  Solving for Ux, Initial residual = 0.0106288605444, Final residual = 0.000441151424348, No Iterations 2
smoothSolver:  Solving for Uy, Initial residual = 0.0935410489047, Final residual = 0.0091173669891, No Iterations 3
smoothSolver:  Solving for Uz, Initial residual = 0.0172228424348, Final residual = 0.00157037885757, No Iterations 3
GAMG:  Solving for p, Initial residual = 0.14879843914, Final residual = 0.00682444420815, No Iterations 7
time step continuity errors : sum local = 200.622864375, global = -0.494476256891, cumulative = 157.285514755
ExecutionTime = 1.33 s  ClockTime = 1 s

Time = 19

smoothSolver:  Solving for Ux, Initial residual = 0.00993200247737, Final residual = 0.000430484982845, No Iterations 2
smoothSolver:  Solving for Uy, Initial residual = 0.102808416483, Final residual = 0.0102046798305, No Iterations 3
smoothSolver:  Solving for Uz, Initial residual = 0.018039308808, Final residual = 0.00171806326391, No Iterations 3
GAMG:  Solving for p, Initial residual = 0.174291180712, Final residual = 0.0085834363011, No Iterations 5
time step continuity errors : sum local = 192.532879982, global = -7.17028422265, cumulative = 150.115230533
ExecutionTime = 1.4 s  ClockTime = 1 s

Time = 20

smoothSolver:  Solving for Ux, Initial residual = 0.00933067740683, Final residual = 0.0004209920384, No Iterations 2
smoothSolver:  Solving for Uy, Initial residual = 0.131515671559, Final residual = 0.00713025216107, No Iterations 4
smoothSolver:  Solving for Uz, Initial residual = 0.0183800710728, Final residual = 0.00178644408709, No Iterations 3
GAMG:  Solving for p, Initial residual = 0.17227981506, Final residual = 0.00602438125289, No Iterations 9
time step continuity errors : sum local = 128.242219744, global = 0.713549000792, cumulative = 150.828779534
ExecutionTime = 1.47 s  ClockTime = 1 s

Time = 21

smoothSolver:  Solving for Ux, Initial residual = 0.00900112611087, Final residual = 0.000419321825037, No Iterations 2
smoothSolver:  Solving for Uy, Initial residual = 0.12552116103, Final residual = 0.00657141980726, No Iterations 4
smoothSolver:  Solving for Uz, Initial residual = 0.0188485431273, Final residual = 0.0018779265813, No Iterations 3
GAMG:  Solving for p, Initial residual = 0.179510068734, Final residual = 0.00585994297836, No Iterations 8
time step continuity errors : sum local = 110.724304166, global = 1.87427171331, cumulative = 152.703051247
ExecutionTime = 1.54 s  ClockTime = 1 s

Time = 22

smoothSolver:  Solving for Ux, Initial residual = 0.00864323528677, Final residual = 0.000421038522412, No Iterations 2
smoothSolver:  Solving for Uy, Initial residual = 0.117399564377, Final residual = 0.006025611993, No Iterations 4
smoothSolver:  Solving for Uz, Initial residual = 0.0188468712572, Final residual = 0.00098595993136, No Iterations 4
GAMG:  Solving for p, Initial residual = 0.173415720517, Final residual = 0.00838828811453, No Iterations 8
time step continuity errors : sum local = 152.315243009, global = 2.5334611603, cumulative = 155.236512407
ExecutionTime = 1.62 s  ClockTime = 1 s

Time = 23

smoothSolver:  Solving for Ux, Initial residual = 0.00830339248992, Final residual = 0.000425585327527, No Iterations 2
smoothSolver:  Solving for Uy, Initial residual = 0.121210945893, Final residual = 0.00636024425972, No Iterations 4
smoothSolver:  Solving for Uz, Initial residual = 0.0180275153639, Final residual = 0.00178093542027, No Iterations 3
GAMG:  Solving for p, Initial residual = 0.151178719698, Final residual = 0.00632805035877, No Iterations 8
time step continuity errors : sum local = 126.800854921, global = 2.28971102689, cumulative = 157.526223434
ExecutionTime = 1.7 s  ClockTime = 1 s

Time = 24

smoothSolver:  Solving for Ux, Initial residual = 0.00813289753492, Final residual = 0.000441168128707, No Iterations 2
smoothSolver:  Solving for Uy, Initial residual = 0.108953350613, Final residual = 0.0108859560201, No Iterations 3
smoothSolver:  Solving for Uz, Initial residual = 0.0177873084557, Final residual = 0.00174258752643, No Iterations 3
GAMG:  Solving for p, Initial residual = 0.132332347354, Final residual = 0.00452060844526, No Iterations 9
time step continuity errors : sum local = 96.0651751819, global = -0.814105527543, cumulative = 156.712117906
ExecutionTime = 1.78 s  ClockTime = 1 s

Time = 25

smoothSolver:  Solving for Ux, Initial residual = 0.00794879279362, Final residual = 0.000452613033825, No Iterations 2
smoothSolver:  Solving for Uy, Initial residual = 0.104234894265, Final residual = 0.00534782133535, No Iterations 4
smoothSolver:  Solving for Uz, Initial residual = 0.0175533247436, Final residual = 0.00170962092516, No Iterations 3
GAMG:  Solving for p, Initial residual = 0.126962885032, Final residual = 0.00565804652424, No Iterations 7
time step continuity errors : sum local = 120.870426022, global = 2.07466322205, cumulative = 158.786781129
ExecutionTime = 1.86 s  ClockTime = 1 s

Time = 26

smoothSolver:  Solving for Ux, Initial residual = 0.00774671737184, Final residual = 0.000457362253347, No Iterations 2
smoothSolver:  Solving for Uy, Initial residual = 0.0963804018882, Final residual = 0.0049068948583, No Iterations 4
smoothSolver:  Solving for Uz, Initial residual = 0.0172913825109, Final residual = 0.0016791457338, No Iterations 3
GAMG:  Solving for p, Initial residual = 0.1296388394, Final residual = 0.00632459250708, No Iterations 9
time step continuity errors : sum local = 128.881436537, global = 1.69728172777, cumulative = 160.484062856
ExecutionTime = 1.95 s  ClockTime = 2 s

Time = 27

smoothSolver:  Solving for Ux, Initial residual = 0.00753525729509, Final residual = 0.000456941185149, No Iterations 2
smoothSolver:  Solving for Uy, Initial residual = 0.0907078879396, Final residual = 0.00901405053245, No Iterations 3
smoothSolver:  Solving for Uz, Initial residual = 0.0169760994033, Final residual = 0.00165139036806, No Iterations 3
GAMG:  Solving for p, Initial residual = 0.12790961698, Final residual = 0.00514858342934, No Iterations 10
time step continuity errors : sum local = 100.654500512, global = -0.725440198977, cumulative = 159.758622657
ExecutionTime = 2.03 s  ClockTime = 2 s

Time = 28

smoothSolver:  Solving for Ux, Initial residual = 0.0073689791012, Final residual = 0.00045732393633, No Iterations 2
smoothSolver:  Solving for Uy, Initial residual = 0.0893725505452, Final residual = 0.00454322484793, No Iterations 4
smoothSolver:  Solving for Uz, Initial residual = 0.0168121008091, Final residual = 0.00165155164988, No Iterations 3
GAMG:  Solving for p, Initial residual = 0.12616969269, Final residual = 0.00482181674727, No Iterations 9
time step continuity errors : sum local = 90.0426799258, global = 2.21359807366, cumulative = 161.972220731
ExecutionTime = 2.1 s  ClockTime = 2 s

Time = 29

smoothSolver:  Solving for Ux, Initial residual = 0.00724512379604, Final residual = 0.000460926157322, No Iterations 2
smoothSolver:  Solving for Uy, Initial residual = 0.0844529958042, Final residual = 0.00430945180252, No Iterations 4
smoothSolver:  Solving for Uz, Initial residual = 0.0170174742737, Final residual = 0.000887689274763, No Iterations 4
GAMG:  Solving for p, Initial residual = 0.133153540109, Final residual = 0.00651482051044, No Iterations 7
time step continuity errors : sum local = 104.34595391, global = 4.95587430915, cumulative = 166.92809504
ExecutionTime = 2.17 s  ClockTime = 2 s

Time = 30

smoothSolver:  Solving for Ux, Initial residual = 0.00707622144766, Final residual = 0.000460408697357, No Iterations 2
smoothSolver:  Solving for Uy, Initial residual = 0.0833081715559, Final residual = 0.00431183103153, No Iterations 4
smoothSolver:  Solving for Uz, Initial residual = 0.0171027178936, Final residual = 0.000900620436816, No Iterations 4
GAMG:  Solving for p, Initial residual = 0.125078474095, Final residual = 0.00622126599628, No Iterations 9
time step continuity errors : sum local = 96.4375691307, global = -1.93571203862, cumulative = 164.992383002
ExecutionTime = 2.25 s  ClockTime = 2 s

Time = 31

smoothSolver:  Solving for Ux, Initial residual = 0.00697133588455, Final residual = 0.000465316525387, No Iterations 2
smoothSolver:  Solving for Uy, Initial residual = 0.085010859022, Final residual = 0.00451202474248, No Iterations 4
smoothSolver:  Solving for Uz, Initial residual = 0.0170733183894, Final residual = 0.000900696969748, No Iterations 4
GAMG:  Solving for p, Initial residual = 0.117695301293, Final residual = 0.00574785397518, No Iterations 9
time step continuity errors : sum local = 87.4867168099, global = 0.420515529697, cumulative = 165.412898531
ExecutionTime = 2.32 s  ClockTime = 2 s

Time = 32

smoothSolver:  Solving for Ux, Initial residual = 0.00688994869321, Final residual = 0.000472770141549, No Iterations 2
smoothSolver:  Solving for Uy, Initial residual = 0.0806793255408, Final residual = 0.00425543362876, No Iterations 4
smoothSolver:  Solving for Uz, Initial residual = 0.0170821289707, Final residual = 0.000904210167964, No Iterations 4
GAMG:  Solving for p, Initial residual = 0.113526515898, Final residual = 0.00374377435916, No Iterations 9
time step continuity errors : sum local = 53.8784582859, global = -0.719342268219, cumulative = 164.693556263
ExecutionTime = 2.39 s  ClockTime = 2 s

Time = 33

smoothSolver:  Solving for Ux, Initial residual = 0.0068090104185, Final residual = 0.000482783457087, No Iterations 2
smoothSolver:  Solving for Uy, Initial residual = 0.0782463194749, Final residual = 0.00409410941682, No Iterations 4
smoothSolver:  Solving for Uz, Initial residual = 0.0171037812935, Final residual = 0.000906361321145, No Iterations 4
GAMG:  Solving for p, Initial residual = 0.111217640436, Final residual = 0.00515202686718, No Iterations 7
time step continuity errors : sum local = 71.4902263414, global = -1.5953669944, cumulative = 163.098189269
ExecutionTime = 2.46 s  ClockTime = 2 s

Time = 34

smoothSolver:  Solving for Ux, Initial residual = 0.00675261295936, Final residual = 0.000495100419939, No Iterations 2
smoothSolver:  Solving for Uy, Initial residual = 0.0761744489548, Final residual = 0.00392759513808, No Iterations 4
smoothSolver:  Solving for Uz, Initial residual = 0.0171839704927, Final residual = 0.000911919055138, No Iterations 4
GAMG:  Solving for p, Initial residual = 0.113294097385, Final residual = 0.00397552706762, No Iterations 9
time step continuity errors : sum local = 52.8945262707, global = -0.450421294783, cumulative = 162.647767974
ExecutionTime = 2.53 s  ClockTime = 2 s

Time = 35

smoothSolver:  Solving for Ux, Initial residual = 0.00670923441486, Final residual = 0.000507701071688, No Iterations 2
smoothSolver:  Solving for Uy, Initial residual = 0.0770154016961, Final residual = 0.00396175605499, No Iterations 4
smoothSolver:  Solving for Uz, Initial residual = 0.0171233009608, Final residual = 0.000908177646143, No Iterations 4
GAMG:  Solving for p, Initial residual = 0.118281950933, Final residual = 0.00480229182746, No Iterations 7
time step continuity errors : sum local = 60.9852997532, global = -0.991121307563, cumulative = 161.656646666
ExecutionTime = 2.61 s  ClockTime = 2 s

Time = 36

smoothSolver:  Solving for Ux, Initial residual = 0.00668420884602, Final residual = 0.000517520617199, No Iterations 2
smoothSolver:  Solving for Uy, Initial residual = 0.0756006984613, Final residual = 0.00382800941538, No Iterations 4
smoothSolver:  Solving for Uz, Initial residual = 0.0171088845069, Final residual = 0.000906839908091, No Iterations 4
GAMG:  Solving for p, Initial residual = 0.12194247956, Final residual = 0.00511598796908, No Iterations 7
time step continuity errors : sum local = 61.9769925324, global = 0.154684438265, cumulative = 161.811331105
ExecutionTime = 2.68 s  ClockTime = 2 s

Time = 37

smoothSolver:  Solving for Ux, Initial residual = 0.00667073447054, Final residual = 0.000524280683144, No Iterations 2
smoothSolver:  Solving for Uy, Initial residual = 0.0760934001424, Final residual = 0.0038452607804, No Iterations 4
smoothSolver:  Solving for Uz, Initial residual = 0.0170109325937, Final residual = 0.000903558839524, No Iterations 4
GAMG:  Solving for p, Initial residual = 0.12402133034, Final residual = 0.00462160895173, No Iterations 7
time step continuity errors : sum local = 53.6357427999, global = -0.644615317888, cumulative = 161.166715787
ExecutionTime = 2.75 s  ClockTime = 2 s

Time = 38

smoothSolver:  Solving for Ux, Initial residual = 0.00666582854753, Final residual = 0.000526233351548, No Iterations 2
smoothSolver:  Solving for Uy, Initial residual = 0.0762562021914, Final residual = 0.00387504910349, No Iterations 4
smoothSolver:  Solving for Uz, Initial residual = 0.0169586778414, Final residual = 0.000906179977734, No Iterations 4
GAMG:  Solving for p, Initial residual = 0.120944241355, Final residual = 0.00377139856813, No Iterations 7
time step continuity errors : sum local = 42.4170490886, global = -0.208022586333, cumulative = 160.9586932
ExecutionTime = 2.82 s  ClockTime = 2 s

Time = 39

smoothSolver:  Solving for Ux, Initial residual = 0.00666448081051, Final residual = 0.000521872302621, No Iterations 2
smoothSolver:  Solving for Uy, Initial residual = 0.0760464959664, Final residual = 0.00387552205951, No Iterations 4
smoothSolver:  Solving for Uz, Initial residual = 0.0168455305424, Final residual = 0.00090198750011, No Iterations 4
GAMG:  Solving for p, Initial residual = 0.116876495326, Final residual = 0.00361293789124, No Iterations 7
time step continuity errors : sum local = 39.094788147, global = -0.181958522057, cumulative = 160.776734678
ExecutionTime = 2.89 s  ClockTime = 2 s

Time = 40

smoothSolver:  Solving for Ux, Initial residual = 0.00667825150759, Final residual = 0.000517634364158, No Iterations 2
smoothSolver:  Solving for Uy, Initial residual = 0.0753075301327, Final residual = 0.00384876469633, No Iterations 4
smoothSolver:  Solving for Uz, Initial residual = 0.0166677480252, Final residual = 0.000892454467642, No Iterations 4
GAMG:  Solving for p, Initial residual = 0.117432463038, Final residual = 0.00321653092316, No Iterations 7
time step continuity errors : sum local = 32.4829321453, global = -0.560514642877, cumulative = 160.216220035
ExecutionTime = 2.96 s  ClockTime = 3 s

Time = 41

smoothSolver:  Solving for Ux, Initial residual = 0.00668161157675, Final residual = 0.000517166232024, No Iterations 2
smoothSolver:  Solving for Uy, Initial residual = 0.0750689820819, Final residual = 0.00384473294366, No Iterations 4
smoothSolver:  Solving for Uz, Initial residual = 0.0163740465735, Final residual = 0.000873091442446, No Iterations 4
GAMG:  Solving for p, Initial residual = 0.116372159822, Final residual = 0.00408738940719, No Iterations 7
time step continuity errors : sum local = 39.476682652, global = -0.327820071609, cumulative = 159.888399964
ExecutionTime = 3.03 s  ClockTime = 3 s

Time = 42

smoothSolver:  Solving for Ux, Initial residual = 0.00668250969383, Final residual = 0.000520244152544, No Iterations 2
smoothSolver:  Solving for Uy, Initial residual = 0.0728986357571, Final residual = 0.00371650206597, No Iterations 4
smoothSolver:  Solving for Uz, Initial residual = 0.0161094500421, Final residual = 0.000856633853268, No Iterations 4
GAMG:  Solving for p, Initial residual = 0.121628112247, Final residual = 0.00371719022396, No Iterations 7
time step continuity errors : sum local = 32.9290723412, global = -0.745690598153, cumulative = 159.142709366
ExecutionTime = 3.1 s  ClockTime = 3 s

Time = 43

smoothSolver:  Solving for Ux, Initial residual = 0.0066561221566, Final residual = 0.000521164689632, No Iterations 2
smoothSolver:  Solving for Uy, Initial residual = 0.0715148341158, Final residual = 0.00713441005562, No Iterations 3
smoothSolver:  Solving for Uz, Initial residual = 0.0157872527109, Final residual = 0.000834046213291, No Iterations 4
GAMG:  Solving for p, Initial residual = 0.121579143004, Final residual = 0.0047970289079, No Iterations 7
time step continuity errors : sum local = 40.3450721989, global = -0.243610990637, cumulative = 158.899098375
ExecutionTime = 3.18 s  ClockTime = 3 s

Time = 44

smoothSolver:  Solving for Ux, Initial residual = 0.00663294225293, Final residual = 0.00052343867769, No Iterations 2
smoothSolver:  Solving for Uy, Initial residual = 0.0705124312118, Final residual = 0.00699715481779, No Iterations 3
smoothSolver:  Solving for Uz, Initial residual = 0.015527279481, Final residual = 0.000818771585319, No Iterations 4
GAMG:  Solving for p, Initial residual = 0.129600403321, Final residual = 0.00423850618868, No Iterations 7
time step continuity errors : sum local = 32.2893570313, global = -0.912152344439, cumulative = 157.986946031
ExecutionTime = 3.24 s  ClockTime = 3 s

Time = 45

smoothSolver:  Solving for Ux, Initial residual = 0.00659159616118, Final residual = 0.000523403634451, No Iterations 2
smoothSolver:  Solving for Uy, Initial residual = 0.0706893555861, Final residual = 0.00697802655265, No Iterations 3
smoothSolver:  Solving for Uz, Initial residual = 0.0152305507496, Final residual = 0.000798685345706, No Iterations 4
GAMG:  Solving for p, Initial residual = 0.132105705453, Final residual = 0.00436196627386, No Iterations 7
time step continuity errors : sum local = 31.5198812477, global = -1.00299634992, cumulative = 156.983949681
ExecutionTime = 3.32 s  ClockTime = 3 s

Time = 46

smoothSolver:  Solving for Ux, Initial residual = 0.00655131198544, Final residual = 0.00052205316802, No Iterations 2
smoothSolver:  Solving for Uy, Initial residual = 0.0691726973666, Final residual = 0.00674778882775, No Iterations 3
smoothSolver:  Solving for Uz, Initial residual = 0.0150050057188, Final residual = 0.000784356713274, No Iterations 4
GAMG:  Solving for p, Initial residual = 0.133008585089, Final residual = 0.00586754087631, No Iterations 7
time step continuity errors : sum local = 40.4289162175, global = 0.149836913892, cumulative = 157.133786594
ExecutionTime = 3.39 s  ClockTime = 3 s

Time = 47

smoothSolver:  Solving for Ux, Initial residual = 0.0065147266527, Final residual = 0.000520320307068, No Iterations 2
smoothSolver:  Solving for Uy, Initial residual = 0.0666225438206, Final residual = 0.00647036223634, No Iterations 3
smoothSolver:  Solving for Uz, Initial residual = 0.0149272579656, Final residual = 0.000784671192282, No Iterations 4
GAMG:  Solving for p, Initial residual = 0.140167173566, Final residual = 0.00536609482027, No Iterations 7
time step continuity errors : sum local = 33.2727410623, global = -0.908365579929, cumulative = 156.225421015
ExecutionTime = 3.45 s  ClockTime = 3 s

Time = 48

smoothSolver:  Solving for Ux, Initial residual = 0.00644533852875, Final residual = 0.000518437289303, No Iterations 2
smoothSolver:  Solving for Uy, Initial residual = 0.0655248408198, Final residual = 0.00635669637075, No Iterations 3
smoothSolver:  Solving for Uz, Initial residual = 0.0147780715258, Final residual = 0.000774891026142, No Iterations 4
GAMG:  Solving for p, Initial residual = 0.136272905018, Final residual = 0.00503637575229, No Iterations 7
time step continuity errors : sum local = 30.1545197324, global = 0.0129830983018, cumulative = 156.238404113
ExecutionTime = 3.52 s  ClockTime = 3 s

Time = 49

smoothSolver:  Solving for Ux, Initial residual = 0.00636345482351, Final residual = 0.000519007449236, No Iterations 2
smoothSolver:  Solving for Uy, Initial residual = 0.064427975803, Final residual = 0.00628381179028, No Iterations 3
smoothSolver:  Solving for Uz, Initial residual = 0.0146664310662, Final residual = 0.000767566808705, No Iterations 4
GAMG:  Solving for p, Initial residual = 0.131570266179, Final residual = 0.0046876202755, No Iterations 7
time step continuity errors : sum local = 27.2213169503, global = -0.497003906656, cumulative = 155.741400206
ExecutionTime = 3.6 s  ClockTime = 3 s

Time = 50

smoothSolver:  Solving for Ux, Initial residual = 0.00627531158199, Final residual = 0.000520723623575, No Iterations 2
smoothSolver:  Solving for Uy, Initial residual = 0.0631474109661, Final residual = 0.00617667911646, No Iterations 3
smoothSolver:  Solving for Uz, Initial residual = 0.0145312373041, Final residual = 0.00145027282489, No Iterations 3
GAMG:  Solving for p, Initial residual = 0.126203089335, Final residual = 0.00560246773967, No Iterations 7
time step continuity errors : sum local = 31.8067796057, global = 0.79286122577, cumulative = 156.534261432
ExecutionTime = 3.68 s  ClockTime = 3 s

Time = 51

smoothSolver:  Solving for Ux, Initial residual = 0.00616661295532, Final residual = 0.000519162869131, No Iterations 2
smoothSolver:  Solving for Uy, Initial residual = 0.0597624343137, Final residual = 0.00576884620933, No Iterations 3
smoothSolver:  Solving for Uz, Initial residual = 0.0144956979241, Final residual = 0.000760846881009, No Iterations 4
GAMG:  Solving for p, Initial residual = 0.123619336135, Final residual = 0.00349610421281, No Iterations 9
time step continuity errors : sum local = 19.15447613, global = 0.897762421192, cumulative = 157.432023853
ExecutionTime = 3.75 s  ClockTime = 3 s

Time = 52

smoothSolver:  Solving for Ux, Initial residual = 0.00607594140841, Final residual = 0.000519646996446, No Iterations 2
smoothSolver:  Solving for Uy, Initial residual = 0.0615062785655, Final residual = 0.00599845885939, No Iterations 3
smoothSolver:  Solving for Uz, Initial residual = 0.0142156160734, Final residual = 0.000744024423779, No Iterations 4
GAMG:  Solving for p, Initial residual = 0.12738380707, Final residual = 0.00508661775984, No Iterations 9
time step continuity errors : sum local = 26.6007321158, global = -0.273833119477, cumulative = 157.158190734
ExecutionTime = 3.82 s  ClockTime = 3 s

Time = 53

smoothSolver:  Solving for Ux, Initial residual = 0.00598892775051, Final residual = 0.000517153592917, No Iterations 2
smoothSolver:  Solving for Uy, Initial residual = 0.0609702935246, Final residual = 0.00593009761507, No Iterations 3
smoothSolver:  Solving for Uz, Initial residual = 0.0139711424333, Final residual = 0.00139605266398, No Iterations 3
GAMG:  Solving for p, Initial residual = 0.128545504321, Final residual = 0.00476351286467, No Iterations 9
time step continuity errors : sum local = 24.2090857602, global = 0.463847129548, cumulative = 157.622037863
ExecutionTime = 3.89 s  ClockTime = 3 s

Time = 54

smoothSolver:  Solving for Ux, Initial residual = 0.00591380246215, Final residual = 0.000513758159244, No Iterations 2
smoothSolver:  Solving for Uy, Initial residual = 0.0576217647605, Final residual = 0.0054637818408, No Iterations 3
smoothSolver:  Solving for Uz, Initial residual = 0.0138596979933, Final residual = 0.00072715346767, No Iterations 4
GAMG:  Solving for p, Initial residual = 0.126592654609, Final residual = 0.00424694457743, No Iterations 9
time step continuity errors : sum local = 21.0425462909, global = 0.434273259024, cumulative = 158.056311122
ExecutionTime = 3.97 s  ClockTime = 4 s

Time = 55

smoothSolver:  Solving for Ux, Initial residual = 0.0058553034002, Final residual = 0.000509977364222, No Iterations 2
smoothSolver:  Solving for Uy, Initial residual = 0.0578243547998, Final residual = 0.00547855497918, No Iterations 3
smoothSolver:  Solving for Uz, Initial residual = 0.0136539714666, Final residual = 0.000716109344885, No Iterations 4
GAMG:  Solving for p, Initial residual = 0.125884689254, Final residual = 0.00395572968727, No Iterations 9
time step continuity errors : sum local = 19.2203877298, global = 0.808120588541, cumulative = 158.864431711
ExecutionTime = 4.04 s  ClockTime = 4 s

Time = 56

smoothSolver:  Solving for Ux, Initial residual = 0.00579552200373, Final residual = 0.000503615758016, No Iterations 2
smoothSolver:  Solving for Uy, Initial residual = 0.0585081747608, Final residual = 0.00555855799772, No Iterations 3
smoothSolver:  Solving for Uz, Initial residual = 0.0134644219457, Final residual = 0.000705764854605, No Iterations 4
GAMG:  Solving for p, Initial residual = 0.12462460887, Final residual = 0.00422094184555, No Iterations 9
time step continuity errors : sum local = 20.1294923554, global = 0.185940346103, cumulative = 159.050372057
ExecutionTime = 4.12 s  ClockTime = 4 s

Time = 57

smoothSolver:  Solving for Ux, Initial residual = 0.00572474932263, Final residual = 0.000497349053822, No Iterations 2
smoothSolver:  Solving for Uy, Initial residual = 0.0587412336823, Final residual = 0.00558380913762, No Iterations 3
smoothSolver:  Solving for Uz, Initial residual = 0.0132921608044, Final residual = 0.000696138859526, No Iterations 4
GAMG:  Solving for p, Initial residual = 0.116584546188, Final residual = 0.00410428858111, No Iterations 9
time step continuity errors : sum local = 20.0022085649, global = 0.103655326447, cumulative = 159.154027383
ExecutionTime = 4.19 s  ClockTime = 4 s

Time = 58

smoothSolver:  Solving for Ux, Initial residual = 0.00564575781745, Final residual = 0.000493087575853, No Iterations 2
smoothSolver:  Solving for Uy, Initial residual = 0.0579996720697, Final residual = 0.00548065513539, No Iterations 3
smoothSolver:  Solving for Uz, Initial residual = 0.0131511863602, Final residual = 0.00068928389826, No Iterations 4
GAMG:  Solving for p, Initial residual = 0.107181222155, Final residual = 0.00368546612141, No Iterations 9
time step continuity errors : sum local = 18.5231454129, global = -0.0374951153819, cumulative = 159.116532268
ExecutionTime = 4.27 s  ClockTime = 4 s

Time = 59

smoothSolver:  Solving for Ux, Initial residual = 0.00555913625435, Final residual = 0.000490859726754, No Iterations 2
smoothSolver:  Solving for Uy, Initial residual = 0.0568064423994, Final residual = 0.0053308226933, No Iterations 3
smoothSolver:  Solving for Uz, Initial residual = 0.0130221270871, Final residual = 0.000682642410563, No Iterations 4
GAMG:  Solving for p, Initial residual = 0.098537256258, Final residual = 0.00339264654191, No Iterations 9
time step continuity errors : sum local = 17.5296517093, global = -0.112252979823, cumulative = 159.004279288
ExecutionTime = 4.34 s  ClockTime = 4 s

Time = 60

smoothSolver:  Solving for Ux, Initial residual = 0.00547597502294, Final residual = 0.00049061653553, No Iterations 2
smoothSolver:  Solving for Uy, Initial residual = 0.0559478684107, Final residual = 0.00522959241414, No Iterations 3
smoothSolver:  Solving for Uz, Initial residual = 0.0129004255112, Final residual = 0.000675456652575, No Iterations 4
GAMG:  Solving for p, Initial residual = 0.0926499102723, Final residual = 0.00291041488813, No Iterations 9
time step continuity errors : sum local = 15.2722505127, global = 0.390156241911, cumulative = 159.39443553
ExecutionTime = 4.41 s  ClockTime = 4 s

Time = 61

smoothSolver:  Solving for Ux, Initial residual = 0.0053884566475, Final residual = 0.000489437320531, No Iterations 2
smoothSolver:  Solving for Uy, Initial residual = 0.0551609671751, Final residual = 0.00512966363123, No Iterations 3
smoothSolver:  Solving for Uz, Initial residual = 0.0127791883392, Final residual = 0.000668229206271, No Iterations 4
GAMG:  Solving for p, Initial residual = 0.091433244899, Final residual = 0.00303267691737, No Iterations 9
time step continuity errors : sum local = 15.5820304308, global = 0.350990956038, cumulative = 159.745426486
ExecutionTime = 4.48 s  ClockTime = 4 s

Time = 62

smoothSolver:  Solving for Ux, Initial residual = 0.00529960048277, Final residual = 0.000486312702229, No Iterations 2
smoothSolver:  Solving for Uy, Initial residual = 0.0541874461459, Final residual = 0.00499223386071, No Iterations 3
smoothSolver:  Solving for Uz, Initial residual = 0.0126540230644, Final residual = 0.000661225445056, No Iterations 4
GAMG:  Solving for p, Initial residual = 0.0905446805303, Final residual = 0.00304084809376, No Iterations 9
time step continuity errors : sum local = 15.2656295706, global = 0.253802802723, cumulative = 159.999229289
ExecutionTime = 4.55 s  ClockTime = 4 s

Time = 63

smoothSolver:  Solving for Ux, Initial residual = 0.00521432071166, Final residual = 0.000481819985826, No Iterations 2
smoothSolver:  Solving for Uy, Initial residual = 0.0537088095249, Final residual = 0.00491086601801, No Iterations 3
smoothSolver:  Solving for Uz, Initial residual = 0.0125271403784, Final residual = 0.000654305231532, No Iterations 4
GAMG:  Solving for p, Initial residual = 0.0902981992482, Final residual = 0.00339946053419, No Iterations 9
time step continuity errors : sum local = 16.6153450827, global = 0.642855291282, cumulative = 160.64208458
ExecutionTime = 4.62 s  ClockTime = 4 s

Time = 64

smoothSolver:  Solving for Ux, Initial residual = 0.0051277380952, Final residual = 0.000475412558198, No Iterations 2
smoothSolver:  Solving for Uy, Initial residual = 0.0530796415464, Final residual = 0.00481239915989, No Iterations 3
smoothSolver:  Solving for Uz, Initial residual = 0.0124052594218, Final residual = 0.000648172724633, No Iterations 4
GAMG:  Solving for p, Initial residual = 0.0907980520419, Final residual = 0.00382736907878, No Iterations 9
time step continuity errors : sum local = 18.0295650064, global = 0.333091058968, cumulative = 160.975175639
ExecutionTime = 4.7 s  ClockTime = 4 s

Time = 65

smoothSolver:  Solving for Ux, Initial residual = 0.00504234910688, Final residual = 0.000467633451645, No Iterations 2
smoothSolver:  Solving for Uy, Initial residual = 0.0521220423914, Final residual = 0.00469071657907, No Iterations 3
smoothSolver:  Solving for Uz, Initial residual = 0.0122978661982, Final residual = 0.000643277578656, No Iterations 4
GAMG:  Solving for p, Initial residual = 0.0917437695709, Final residual = 0.00370145542488, No Iterations 11
time step continuity errors : sum local = 16.6256493451, global = 0.71889903107, cumulative = 161.69407467
ExecutionTime = 4.78 s  ClockTime = 4 s

Time = 66

smoothSolver:  Solving for Ux, Initial residual = 0.00496126134223, Final residual = 0.000459098183725, No Iterations 2
smoothSolver:  Solving for Uy, Initial residual = 0.0506403132548, Final residual = 0.00453437391015, No Iterations 3
smoothSolver:  Solving for Uz, Initial residual = 0.0122079329044, Final residual = 0.000640677205519, No Iterations 4
GAMG:  Solving for p, Initial residual = 0.0997448080824, Final residual = 0.00417418340514, No Iterations 11
time step continuity errors : sum local = 16.6293925114, global = -0.238654727849, cumulative = 161.455419942
ExecutionTime = 4.85 s  ClockTime = 4 s

Time = 67

smoothSolver:  Solving for Ux, Initial residual = 0.00488115373604, Final residual = 0.000450196069243, No Iterations 2
smoothSolver:  Solving for Uy, Initial residual = 0.0491810797185, Final residual = 0.00435575921219, No Iterations 3
smoothSolver:  Solving for Uz, Initial residual = 0.0121158447869, Final residual = 0.000636434501854, No Iterations 4
GAMG:  Solving for p, Initial residual = 0.1005781385, Final residual = 0.00434877937263, No Iterations 11
time step continuity errors : sum local = 15.9733803035, global = -0.0183728375822, cumulative = 161.437047105
ExecutionTime = 4.93 s  ClockTime = 4 s

Time = 68

smoothSolver:  Solving for Ux, Initial residual = 0.00478908625127, Final residual = 0.000439835145828, No Iterations 2
smoothSolver:  Solving for Uy, Initial residual = 0.0488355883846, Final residual = 0.00435008524408, No Iterations 3
smoothSolver:  Solving for Uz, Initial residual = 0.0119958328756, Final residual = 0.000629629394465, No Iterations 4
GAMG:  Solving for p, Initial residual = 0.102263339445, Final residual = 0.00381141814595, No Iterations 11
time step continuity errors : sum local = 13.3129418335, global = -0.0885502510223, cumulative = 161.348496854
ExecutionTime = 5 s  ClockTime = 5 s

Time = 69

smoothSolver:  Solving for Ux, Initial residual = 0.00469904239318, Final residual = 0.000430063635394, No Iterations 2
smoothSolver:  Solving for Uy, Initial residual = 0.0476421858122, Final residual = 0.00420678882484, No Iterations 3
smoothSolver:  Solving for Uz, Initial residual = 0.011858063388, Final residual = 0.000621057515987, No Iterations 4
GAMG:  Solving for p, Initial residual = 0.103900605711, Final residual = 0.00404955040454, No Iterations 9
time step continuity errors : sum local = 13.1904188258, global = -0.0743245638735, cumulative = 161.27417229
ExecutionTime = 5.07 s  ClockTime = 5 s

Time = 70

smoothSolver:  Solving for Ux, Initial residual = 0.00460176491882, Final residual = 0.000419093454133, No Iterations 2
smoothSolver:  Solving for Uy, Initial residual = 0.0468777796958, Final residual = 0.00412677709938, No Iterations 3
smoothSolver:  Solving for Uz, Initial residual = 0.011723004824, Final residual = 0.00117214634727, No Iterations 3
GAMG:  Solving for p, Initial residual = 0.107687785167, Final residual = 0.00521429350774, No Iterations 9
time step continuity errors : sum local = 15.8778786116, global = 0.0138432341212, cumulative = 161.288015524
ExecutionTime = 5.14 s  ClockTime = 5 s

Time = 71

smoothSolver:  Solving for Ux, Initial residual = 0.00451333617973, Final residual = 0.000409836479962, No Iterations 2
smoothSolver:  Solving for Uy, Initial residual = 0.0455550275503, Final residual = 0.0039721445262, No Iterations 3
smoothSolver:  Solving for Uz, Initial residual = 0.011618185838, Final residual = 0.000607643233467, No Iterations 4
GAMG:  Solving for p, Initial residual = 0.117298769016, Final residual = 0.00513231748658, No Iterations 9
time step continuity errors : sum local = 14.0931306566, global = 0.0353731633407, cumulative = 161.323388687
ExecutionTime = 5.22 s  ClockTime = 5 s

Time = 72

smoothSolver:  Solving for Ux, Initial residual = 0.00442985158135, Final residual = 0.000401478984129, No Iterations 2
smoothSolver:  Solving for Uy, Initial residual = 0.0447821584882, Final residual = 0.00388123579281, No Iterations 3
smoothSolver:  Solving for Uz, Initial residual = 0.0114498921083, Final residual = 0.0011435633141, No Iterations 3
GAMG:  Solving for p, Initial residual = 0.12530716769, Final residual = 0.0046918395892, No Iterations 9
time step continuity errors : sum local = 11.7908870133, global = -0.0146024495354, cumulative = 161.308786238
ExecutionTime = 5.29 s  ClockTime = 5 s

Time = 73

smoothSolver:  Solving for Ux, Initial residual = 0.00435629149665, Final residual = 0.000393728177011, No Iterations 2
smoothSolver:  Solving for Uy, Initial residual = 0.0432755817381, Final residual = 0.00371218828875, No Iterations 3
smoothSolver:  Solving for Uz, Initial residual = 0.0113258794626, Final residual = 0.000592212775325, No Iterations 4
GAMG:  Solving for p, Initial residual = 0.138540066951, Final residual = 0.00563460592989, No Iterations 9
time step continuity errors : sum local = 12.61723708, global = -0.0320804120867, cumulative = 161.276705826
ExecutionTime = 5.36 s  ClockTime = 5 s

Time = 74

smoothSolver:  Solving for Ux, Initial residual = 0.00429376944576, Final residual = 0.00038710259147, No Iterations 2
smoothSolver:  Solving for Uy, Initial residual = 0.0434489725603, Final residual = 0.00374646370949, No Iterations 3
smoothSolver:  Solving for Uz, Initial residual = 0.0111078786033, Final residual = 0.00110720753247, No Iterations 3
GAMG:  Solving for p, Initial residual = 0.151238283502, Final residual = 0.00577304160187, No Iterations 9
time step continuity errors : sum local = 11.9031216455, global = 0.0132978582144, cumulative = 161.290003684
ExecutionTime = 5.43 s  ClockTime = 5 s

Time = 75

smoothSolver:  Solving for Ux, Initial residual = 0.0042402699973, Final residual = 0.000379854091088, No Iterations 2
smoothSolver:  Solving for Uy, Initial residual = 0.0414500157376, Final residual = 0.00350507282607, No Iterations 3
smoothSolver:  Solving for Uz, Initial residual = 0.0109629508268, Final residual = 0.00109604719535, No Iterations 3
GAMG:  Solving for p, Initial residual = 0.138043498808, Final residual = 0.00502808436128, No Iterations 9
time step continuity errors : sum local = 11.1527434406, global = 0.0668493741479, cumulative = 161.356853058
ExecutionTime = 5.5 s  ClockTime = 5 s

Time = 76

smoothSolver:  Solving for Ux, Initial residual = 0.00419556709304, Final residual = 0.000372181901257, No Iterations 2
smoothSolver:  Solving for Uy, Initial residual = 0.0395903492077, Final residual = 0.00329528697794, No Iterations 3
smoothSolver:  Solving for Uz, Initial residual = 0.010826736014, Final residual = 0.000569300323016, No Iterations 4
GAMG:  Solving for p, Initial residual = 0.116947390089, Final residual = 0.00392710383485, No Iterations 9
time step continuity errors : sum local = 10.1422068386, global = -0.0916297846795, cumulative = 161.265223273
ExecutionTime = 5.58 s  ClockTime = 5 s

Time = 77

smoothSolver:  Solving for Ux, Initial residual = 0.00415083087082, Final residual = 0.000365877743997, No Iterations 2
smoothSolver:  Solving for Uy, Initial residual = 0.0386793845069, Final residual = 0.00323048842577, No Iterations 3
smoothSolver:  Solving for Uz, Initial residual = 0.010629928812, Final residual = 0.000560609803194, No Iterations 4
GAMG:  Solving for p, Initial residual = 0.102778297722, Final residual = 0.00344994784198, No Iterations 9
time step continuity errors : sum local = 9.9809892113, global = -0.776496170226, cumulative = 160.488727103
ExecutionTime = 5.66 s  ClockTime = 5 s

Time = 78

smoothSolver:  Solving for Ux, Initial residual = 0.00409768698878, Final residual = 0.000362315643498, No Iterations 2
smoothSolver:  Solving for Uy, Initial residual = 0.0376077656077, Final residual = 0.0031768179714, No Iterations 3
smoothSolver:  Solving for Uz, Initial residual = 0.0104049168314, Final residual = 0.000549518617413, No Iterations 4
GAMG:  Solving for p, Initial residual = 0.0941910828539, Final residual = 0.00341647410994, No Iterations 9
time step continuity errors : sum local = 10.5728218393, global = -0.426982765162, cumulative = 160.061744338
ExecutionTime = 5.73 s  ClockTime = 5 s

Time = 79

smoothSolver:  Solving for Ux, Initial residual = 0.00406234895081, Final residual = 0.000365357834728, No Iterations 2
smoothSolver:  Solving for Uy, Initial residual = 0.0351078071456, Final residual = 0.0029847945296, No Iterations 3
smoothSolver:  Solving for Uz, Initial residual = 0.0101829609996, Final residual = 0.000541745111195, No Iterations 4
GAMG:  Solving for p, Initial residual = 0.0803369396469, Final residual = 0.00237538600322, No Iterations 9
time step continuity errors : sum local = 8.05041964889, global = -0.16246147824, cumulative = 159.89928286
ExecutionTime = 5.8 s  ClockTime = 5 s

Time = 80

smoothSolver:  Solving for Ux, Initial residual = 0.00404914904028, Final residual = 0.000372504728748, No Iterations 2
smoothSolver:  Solving for Uy, Initial residual = 0.0325018165559, Final residual = 0.00281696044281, No Iterations 3
smoothSolver:  Solving for Uz, Initial residual = 0.00995070977515, Final residual = 0.000533970737634, No Iterations 4
GAMG:  Solving for p, Initial residual = 0.0671538039076, Final residual = 0.00204101133161, No Iterations 9
time step continuity errors : sum local = 7.62056068896, global = -0.0384568354503, cumulative = 159.860826024
ExecutionTime = 5.88 s  ClockTime = 5 s

Time = 81

smoothSolver:  Solving for Ux, Initial residual = 0.00401995904314, Final residual = 0.000378231700875, No Iterations 2
smoothSolver:  Solving for Uy, Initial residual = 0.0304304428429, Final residual = 0.00268817453747, No Iterations 3
smoothSolver:  Solving for Uz, Initial residual = 0.00971871449287, Final residual = 0.000524233584764, No Iterations 4
GAMG:  Solving for p, Initial residual = 0.0565068614282, Final residual = 0.0022101998917, No Iterations 11
time step continuity errors : sum local = 8.92756199692, global = 0.462298070958, cumulative = 160.323124095
ExecutionTime = 5.95 s  ClockTime = 6 s

Time = 82

smoothSolver:  Solving for Ux, Initial residual = 0.00397849410321, Final residual = 0.00038266956203, No Iterations 2
smoothSolver:  Solving for Uy, Initial residual = 0.0293068373388, Final residual = 0.0026583199798, No Iterations 3
smoothSolver:  Solving for Uz, Initial residual = 0.00951037609851, Final residual = 0.000510925829071, No Iterations 4
GAMG:  Solving for p, Initial residual = 0.0500228335229, Final residual = 0.00227340042908, No Iterations 11
time step continuity errors : sum local = 9.60356941857, global = -0.666068464534, cumulative = 159.657055631
ExecutionTime = 6.03 s  ClockTime = 6 s

Time = 83

smoothSolver:  Solving for Ux, Initial residual = 0.00392321572467, Final residual = 0.000384003475104, No Iterations 2
smoothSolver:  Solving for Uy, Initial residual = 0.0273720570427, Final residual = 0.00247894959122, No Iterations 3
smoothSolver:  Solving for Uz, Initial residual = 0.00938641820878, Final residual = 0.000503079556249, No Iterations 4
GAMG:  Solving for p, Initial residual = 0.0447661493649, Final residual = 0.00144859731798, No Iterations 11
time step continuity errors : sum local = 6.35587658403, global = 0.382273897078, cumulative = 160.039329528
ExecutionTime = 6.11 s  ClockTime = 6 s

Time = 84

smoothSolver:  Solving for Ux, Initial residual = 0.00385562923466, Final residual = 0.000384013583599, No Iterations 2
smoothSolver:  Solving for Uy, Initial residual = 0.02597134156, Final residual = 0.00235088702365, No Iterations 3
smoothSolver:  Solving for Uz, Initial residual = 0.00918485563901, Final residual = 0.000489850560118, No Iterations 4
GAMG:  Solving for p, Initial residual = 0.0423907358593, Final residual = 0.00140612965277, No Iterations 9
time step continuity errors : sum local = 6.0326387129, global = -0.472191412202, cumulative = 159.567138116
ExecutionTime = 6.18 s  ClockTime = 6 s

Time = 85

smoothSolver:  Solving for Ux, Initial residual = 0.00377807924556, Final residual = 0.000162932195432, No Iterations 3
smoothSolver:  Solving for Uy, Initial residual = 0.0239675752838, Final residual = 0.00213199477532, No Iterations 3
smoothSolver:  Solving for Uz, Initial residual = 0.00907145589349, Final residual = 0.000489217829552, No Iterations 4
GAMG:  Solving for p, Initial residual = 0.0392746766444, Final residual = 0.00182794889445, No Iterations 9
time step continuity errors : sum local = 7.85408724985, global = 0.23046853537, cumulative = 159.797606651
ExecutionTime = 6.26 s  ClockTime = 6 s

Time = 86

smoothSolver:  Solving for Ux, Initial residual = 0.00371074885948, Final residual = 0.00016115549507, No Iterations 3
smoothSolver:  Solving for Uy, Initial residual = 0.023264654845, Final residual = 0.00206313869303, No Iterations 3
smoothSolver:  Solving for Uz, Initial residual = 0.00893163699779, Final residual = 0.00048729963876, No Iterations 4
GAMG:  Solving for p, Initial residual = 0.038281634854, Final residual = 0.000709274869957, No Iterations 10
time step continuity errors : sum local = 3.02139066509, global = 0.330287009516, cumulative = 160.12789366
ExecutionTime = 6.33 s  ClockTime = 6 s

Time = 87

smoothSolver:  Solving for Ux, Initial residual = 0.00365811658229, Final residual = 0.000159304646883, No Iterations 3
smoothSolver:  Solving for Uy, Initial residual = 0.0232949727362, Final residual = 0.00208478769177, No Iterations 3
smoothSolver:  Solving for Uz, Initial residual = 0.00877317227864, Final residual = 0.000485003129157, No Iterations 4
GAMG:  Solving for p, Initial residual = 0.0383390145237, Final residual = 0.00185420537065, No Iterations 9
time step continuity errors : sum local = 7.78050167264, global = 0.219611267438, cumulative = 160.347504928
ExecutionTime = 6.4 s  ClockTime = 6 s

Time = 88

smoothSolver:  Solving for Ux, Initial residual = 0.00361136090182, Final residual = 0.000157191351136, No Iterations 3
smoothSolver:  Solving for Uy, Initial residual = 0.0236649714597, Final residual = 0.00216910853836, No Iterations 3
smoothSolver:  Solving for Uz, Initial residual = 0.00860987800917, Final residual = 0.00048233946156, No Iterations 4
GAMG:  Solving for p, Initial residual = 0.0396203945951, Final residual = 0.00135183678719, No Iterations 9
time step continuity errors : sum local = 5.57277176165, global = 0.660875079434, cumulative = 161.008380007
ExecutionTime = 6.47 s  ClockTime = 6 s

Time = 89

smoothSolver:  Solving for Ux, Initial residual = 0.00357227540649, Final residual = 0.000154858887697, No Iterations 3
smoothSolver:  Solving for Uy, Initial residual = 0.0236979094824, Final residual = 0.00218664279474, No Iterations 3
smoothSolver:  Solving for Uz, Initial residual = 0.00844001049089, Final residual = 0.000478284507051, No Iterations 4
GAMG:  Solving for p, Initial residual = 0.0411725255991, Final residual = 0.00144608389814, No Iterations 9
time step continuity errors : sum local = 5.80772324065, global = 0.737283565503, cumulative = 161.745663573
ExecutionTime = 6.55 s  ClockTime = 6 s

Time = 90

smoothSolver:  Solving for Ux, Initial residual = 0.00354572103623, Final residual = 0.000152901180699, No Iterations 3
smoothSolver:  Solving for Uy, Initial residual = 0.0237503080932, Final residual = 0.00220146130135, No Iterations 3
smoothSolver:  Solving for Uz, Initial residual = 0.00824483615294, Final residual = 0.00047083718922, No Iterations 4
GAMG:  Solving for p, Initial residual = 0.0434823584358, Final residual = 0.00161042378826, No Iterations 9
time step continuity errors : sum local = 6.19542718464, global = 0.680038223155, cumulative = 162.425701796
ExecutionTime = 6.62 s  ClockTime = 6 s

Time = 91

smoothSolver:  Solving for Ux, Initial residual = 0.00352765926707, Final residual = 0.000151046682955, No Iterations 3
smoothSolver:  Solving for Uy, Initial residual = 0.0237874404058, Final residual = 0.00220010532267, No Iterations 3
smoothSolver:  Solving for Uz, Initial residual = 0.0080462106049, Final residual = 0.000462150304289, No Iterations 4
GAMG:  Solving for p, Initial residual = 0.0391793297664, Final residual = 0.00147507818939, No Iterations 9
time step continuity errors : sum local = 6.41178123827, global = 0.207942759474, cumulative = 162.633644555
ExecutionTime = 6.7 s  ClockTime = 6 s

Time = 92

smoothSolver:  Solving for Ux, Initial residual = 0.0034841504618, Final residual = 0.000149281020322, No Iterations 3
smoothSolver:  Solving for Uy, Initial residual = 0.023431584352, Final residual = 0.00216238002798, No Iterations 3
smoothSolver:  Solving for Uz, Initial residual = 0.00784455604466, Final residual = 0.000453522943473, No Iterations 4
GAMG:  Solving for p, Initial residual = 0.0421101259629, Final residual = 0.00155437133135, No Iterations 9
time step continuity errors : sum local = 6.15476737618, global = 0.0991017988952, cumulative = 162.732746354
ExecutionTime = 6.78 s  ClockTime = 6 s

Time = 93

smoothSolver:  Solving for Ux, Initial residual = 0.00343799695564, Final residual = 0.000147572085347, No Iterations 3
smoothSolver:  Solving for Uy, Initial residual = 0.0227786456621, Final residual = 0.00208346922108, No Iterations 3
smoothSolver:  Solving for Uz, Initial residual = 0.0076752160213, Final residual = 0.000446833578322, No Iterations 4
GAMG:  Solving for p, Initial residual = 0.0435051698624, Final residual = 0.00181851648722, No Iterations 9
time step continuity errors : sum local = 6.78388301373, global = 0.0652765603316, cumulative = 162.798022915
ExecutionTime = 6.85 s  ClockTime = 6 s

Time = 94

smoothSolver:  Solving for Ux, Initial residual = 0.0034003673097, Final residual = 0.000146486697646, No Iterations 3
smoothSolver:  Solving for Uy, Initial residual = 0.0225715840771, Final residual = 0.00205916828252, No Iterations 3
smoothSolver:  Solving for Uz, Initial residual = 0.00753458552786, Final residual = 0.000441741622625, No Iterations 4
GAMG:  Solving for p, Initial residual = 0.0448662798254, Final residual = 0.00175159626071, No Iterations 9
time step continuity errors : sum local = 6.17629259715, global = 0.113507674619, cumulative = 162.911530589
ExecutionTime = 6.92 s  ClockTime = 6 s

Time = 95

smoothSolver:  Solving for Ux, Initial residual = 0.00335870757025, Final residual = 0.000145310527627, No Iterations 3
smoothSolver:  Solving for Uy, Initial residual = 0.0221622694917, Final residual = 0.00201095465831, No Iterations 3
smoothSolver:  Solving for Uz, Initial residual = 0.00740704034643, Final residual = 0.000437233473979, No Iterations 4
GAMG:  Solving for p, Initial residual = 0.0459291940277, Final residual = 0.00170508723368, No Iterations 9
time step continuity errors : sum local = 5.70235684089, global = 0.196044310862, cumulative = 163.1075749
ExecutionTime = 6.99 s  ClockTime = 7 s

Time = 96

smoothSolver:  Solving for Ux, Initial residual = 0.00331533520316, Final residual = 0.000144166896533, No Iterations 3
smoothSolver:  Solving for Uy, Initial residual = 0.0218229190296, Final residual = 0.00197688300366, No Iterations 3
smoothSolver:  Solving for Uz, Initial residual = 0.00728845396855, Final residual = 0.000432982314806, No Iterations 4
GAMG:  Solving for p, Initial residual = 0.0468558184175, Final residual = 0.00164066774962, No Iterations 9
time step continuity errors : sum local = 5.20634942476, global = 0.271618815054, cumulative = 163.379193715
ExecutionTime = 7.07 s  ClockTime = 7 s

Time = 97

smoothSolver:  Solving for Ux, Initial residual = 0.00327570302296, Final residual = 0.000143108227618, No Iterations 3
smoothSolver:  Solving for Uy, Initial residual = 0.0214771914892, Final residual = 0.00194787416078, No Iterations 3
smoothSolver:  Solving for Uz, Initial residual = 0.00717943120059, Final residual = 0.000428974818247, No Iterations 4
GAMG:  Solving for p, Initial residual = 0.0474511048917, Final residual = 0.00193514530411, No Iterations 7
time step continuity errors : sum local = 5.82787005745, global = 0.430513679608, cumulative = 163.809707395
ExecutionTime = 7.14 s  ClockTime = 7 s

Time = 98

smoothSolver:  Solving for Ux, Initial residual = 0.00321885825402, Final residual = 0.000141296781851, No Iterations 3
smoothSolver:  Solving for Uy, Initial residual = 0.0209976905782, Final residual = 0.00191886704059, No Iterations 3
smoothSolver:  Solving for Uz, Initial residual = 0.00710254569965, Final residual = 0.000428482482147, No Iterations 4
GAMG:  Solving for p, Initial residual = 0.0465225524271, Final residual = 0.00182648640843, No Iterations 9
time step continuity errors : sum local = 5.39052849238, global = 0.453976913767, cumulative = 164.263684309
ExecutionTime = 7.21 s  ClockTime = 7 s

Time = 99

smoothSolver:  Solving for Ux, Initial residual = 0.00319756021472, Final residual = 0.000141732127085, No Iterations 3
smoothSolver:  Solving for Uy, Initial residual = 0.0217686788304, Final residual = 0.00203981113459, No Iterations 3
smoothSolver:  Solving for Uz, Initial residual = 0.00698492027123, Final residual = 0.000421716122083, No Iterations 4
GAMG:  Solving for p, Initial residual = 0.0492410918017, Final residual = 0.00221978682174, No Iterations 9
time step continuity errors : sum local = 6.05134835818, global = 0.395077803874, cumulative = 164.658762112
ExecutionTime = 7.28 s  ClockTime = 7 s

Time = 100

smoothSolver:  Solving for Ux, Initial residual = 0.00316500138096, Final residual = 0.000141928863222, No Iterations 3
smoothSolver:  Solving for Uy, Initial residual = 0.0209925181404, Final residual = 0.00194445983582, No Iterations 3
smoothSolver:  Solving for Uz, Initial residual = 0.00689101416767, Final residual = 0.000417061985391, No Iterations 4
GAMG:  Solving for p, Initial residual = 0.0507061747339, Final residual = 0.00251403964283, No Iterations 7
time step continuity errors : sum local = 6.37410846887, global = 0.0169321911384, cumulative = 164.675694304
ExecutionTime = 7.35 s  ClockTime = 7 s

Time = 101

smoothSolver:  Solving for Ux, Initial residual = 0.00312895680562, Final residual = 0.000142003670276, No Iterations 3
smoothSolver:  Solving for Uy, Initial residual = 0.0199413531751, Final residual = 0.00182406818372, No Iterations 3
smoothSolver:  Solving for Uz, Initial residual = 0.00682779443784, Final residual = 0.000415523992405, No Iterations 4
GAMG:  Solving for p, Initial residual = 0.0493956896313, Final residual = 0.00177843145558, No Iterations 7
time step continuity errors : sum local = 4.2768485794, global = 0.227908718873, cumulative = 164.903603022
ExecutionTime = 7.45 s  ClockTime = 7 s

Time = 102

smoothSolver:  Solving for Ux, Initial residual = 0.0030950448481, Final residual = 0.000142331224915, No Iterations 3
smoothSolver:  Solving for Uy, Initial residual = 0.0197575843215, Final residual = 0.0018282143441, No Iterations 3
smoothSolver:  Solving for Uz, Initial residual = 0.00676630565496, Final residual = 0.000414249618218, No Iterations 4
GAMG:  Solving for p, Initial residual = 0.0478990825373, Final residual = 0.00183855388669, No Iterations 7
time step continuity errors : sum local = 4.34933603152, global = 0.232289810296, cumulative = 165.135892833
ExecutionTime = 7.52 s  ClockTime = 7 s

Time = 103

smoothSolver:  Solving for Ux, Initial residual = 0.00306723748362, Final residual = 0.000142866484531, No Iterations 3
smoothSolver:  Solving for Uy, Initial residual = 0.0192356092798, Final residual = 0.00177394919408, No Iterations 3
smoothSolver:  Solving for Uz, Initial residual = 0.0067084301774, Final residual = 0.000412984899215, No Iterations 4
GAMG:  Solving for p, Initial residual = 0.0457329906899, Final residual = 0.00142329806315, No Iterations 9
time step continuity errors : sum local = 3.3370749306, global = 0.0446072701228, cumulative = 165.180500103
ExecutionTime = 7.6 s  ClockTime = 7 s

Time = 104

smoothSolver:  Solving for Ux, Initial residual = 0.00304771965958, Final residual = 0.000143819192378, No Iterations 3
smoothSolver:  Solving for Uy, Initial residual = 0.0200084791767, Final residual = 0.00190453291451, No Iterations 3
smoothSolver:  Solving for Uz, Initial residual = 0.0066203397629, Final residual = 0.000407773784831, No Iterations 4
GAMG:  Solving for p, Initial residual = 0.0468582718216, Final residual = 0.0017235223952, No Iterations 7
time step continuity errors : sum local = 3.86357549478, global = 0.0308531016843, cumulative = 165.211353205
ExecutionTime = 7.67 s  ClockTime = 7 s

Time = 105

smoothSolver:  Solving for Ux, Initial residual = 0.0030167453741, Final residual = 0.000143920649343, No Iterations 3
smoothSolver:  Solving for Uy, Initial residual = 0.0186389991685, Final residual = 0.0017339224086, No Iterations 3
smoothSolver:  Solving for Uz, Initial residual = 0.00658423737824, Final residual = 0.000408282072748, No Iterations 4
GAMG:  Solving for p, Initial residual = 0.0429292555591, Final residual = 0.00181435470794, No Iterations 7
time step continuity errors : sum local = 4.03290314421, global = -0.0293500818943, cumulative = 165.182003123
ExecutionTime = 7.74 s  ClockTime = 7 s

Time = 106

smoothSolver:  Solving for Ux, Initial residual = 0.00299020102888, Final residual = 0.000144306945395, No Iterations 3
smoothSolver:  Solving for Uy, Initial residual = 0.0182040350056, Final residual = 0.00169708417615, No Iterations 3
smoothSolver:  Solving for Uz, Initial residual = 0.00654096051355, Final residual = 0.000407882724481, No Iterations 4
GAMG:  Solving for p, Initial residual = 0.0404301668237, Final residual = 0.0018891217728, No Iterations 7
time step continuity errors : sum local = 4.1846203366, global = -0.0687448918769, cumulative = 165.113258231
ExecutionTime = 7.81 s  ClockTime = 7 s

Time = 107

smoothSolver:  Solving for Ux, Initial residual = 0.00296311592957, Final residual = 0.000144733052078, No Iterations 3
smoothSolver:  Solving for Uy, Initial residual = 0.0180295313489, Final residual = 0.00169349039776, No Iterations 3
smoothSolver:  Solving for Uz, Initial residual = 0.00649056888511, Final residual = 0.00040646095754, No Iterations 4
GAMG:  Solving for p, Initial residual = 0.0382999257319, Final residual = 0.00103130734616, No Iterations 9
time step continuity errors : sum local = 2.28522845882, global = 0.147868228123, cumulative = 165.261126459
ExecutionTime = 7.89 s  ClockTime = 7 s

Time = 108

smoothSolver:  Solving for Ux, Initial residual = 0.0029402067886, Final residual = 0.000145283887967, No Iterations 3
smoothSolver:  Solving for Uy, Initial residual = 0.0181546147802, Final residual = 0.00172748552858, No Iterations 3
smoothSolver:  Solving for Uz, Initial residual = 0.00641934628362, Final residual = 0.000402505873116, No Iterations 4
GAMG:  Solving for p, Initial residual = 0.0364510518254, Final residual = 0.000870816799127, No Iterations 9
time step continuity errors : sum local = 1.94480939212, global = 0.112920640141, cumulative = 165.374047099
ExecutionTime = 7.96 s  ClockTime = 8 s

Time = 109

smoothSolver:  Solving for Ux, Initial residual = 0.00293976675762, Final residual = 0.000144952474268, No Iterations 3
smoothSolver:  Solving for Uy, Initial residual = 0.0175293846035, Final residual = 0.00163617035299, No Iterations 3
smoothSolver:  Solving for Uz, Initial residual = 0.00637884267024, Final residual = 0.000401465053976, No Iterations 4
GAMG:  Solving for p, Initial residual = 0.0406150595887, Final residual = 0.00167858363556, No Iterations 9
time step continuity errors : sum local = 3.16174446363, global = 0.0101302167842, cumulative = 165.384177316
ExecutionTime = 8.03 s  ClockTime = 8 s

Time = 110

smoothSolver:  Solving for Ux, Initial residual = 0.00290766082262, Final residual = 0.000145334143675, No Iterations 3
smoothSolver:  Solving for Uy, Initial residual = 0.0168629560106, Final residual = 0.00156884122454, No Iterations 3
smoothSolver:  Solving for Uz, Initial residual = 0.00636319448052, Final residual = 0.000403390893611, No Iterations 4
GAMG:  Solving for p, Initial residual = 0.0313484137287, Final residual = 0.000813668488245, No Iterations 11
time step continuity errors : sum local = 1.860826163, global = -0.247157303977, cumulative = 165.137020012
ExecutionTime = 8.1 s  ClockTime = 8 s

Time = 111

smoothSolver:  Solving for Ux, Initial residual = 0.00289988009318, Final residual = 0.000145201337958, No Iterations 3
smoothSolver:  Solving for Uy, Initial residual = 0.0169587066873, Final residual = 0.00158410150291, No Iterations 3
smoothSolver:  Solving for Uz, Initial residual = 0.00629821804971, Final residual = 0.000399965944976, No Iterations 4
GAMG:  Solving for p, Initial residual = 0.0362174100398, Final residual = 0.0014150875638, No Iterations 9
time step continuity errors : sum local = 2.70841356679, global = -0.250621577937, cumulative = 164.886398434
ExecutionTime = 8.17 s  ClockTime = 8 s

Time = 112

smoothSolver:  Solving for Ux, Initial residual = 0.00285980741933, Final residual = 0.000145232834461, No Iterations 3
smoothSolver:  Solving for Uy, Initial residual = 0.0166532468007, Final residual = 0.00157400895457, No Iterations 3
smoothSolver:  Solving for Uz, Initial residual = 0.00625262713059, Final residual = 0.000398587600983, No Iterations 4
GAMG:  Solving for p, Initial residual = 0.0350674272352, Final residual = 0.00145508489734, No Iterations 11
time step continuity errors : sum local = 2.82359695896, global = -0.0672887651475, cumulative = 164.819109669
ExecutionTime = 8.25 s  ClockTime = 8 s

Time = 113

smoothSolver:  Solving for Ux, Initial residual = 0.00283992986762, Final residual = 0.000145607478905, No Iterations 3
smoothSolver:  Solving for Uy, Initial residual = 0.0162282099643, Final residual = 0.00153647855998, No Iterations 3
smoothSolver:  Solving for Uz, Initial residual = 0.00619881046133, Final residual = 0.000396919238067, No Iterations 4
GAMG:  Solving for p, Initial residual = 0.0332247491492, Final residual = 0.00149499902173, No Iterations 10
time step continuity errors : sum local = 2.9804130363, global = -0.160531376492, cumulative = 164.658578292
ExecutionTime = 8.32 s  ClockTime = 8 s

Time = 114

smoothSolver:  Solving for Ux, Initial residual = 0.00282643436171, Final residual = 0.000146087102652, No Iterations 3
smoothSolver:  Solving for Uy, Initial residual = 0.0157559249786, Final residual = 0.00148833553481, No Iterations 3
smoothSolver:  Solving for Uz, Initial residual = 0.00615073496267, Final residual = 0.000396102149246, No Iterations 4
GAMG:  Solving for p, Initial residual = 0.0320165176387, Final residual = 0.00154588283985, No Iterations 9
time step continuity errors : sum local = 3.16450027741, global = -0.185088229195, cumulative = 164.473490063
ExecutionTime = 8.4 s  ClockTime = 8 s

Time = 115

smoothSolver:  Solving for Ux, Initial residual = 0.00281889700532, Final residual = 0.000146376163435, No Iterations 3
smoothSolver:  Solving for Uy, Initial residual = 0.0154048868038, Final residual = 0.00145362148055, No Iterations 3
smoothSolver:  Solving for Uz, Initial residual = 0.00609177545191, Final residual = 0.000394616583476, No Iterations 4
GAMG:  Solving for p, Initial residual = 0.0303456991309, Final residual = 0.000846619194312, No Iterations 9
time step continuity errors : sum local = 1.78485390827, global = -0.161903346761, cumulative = 164.311586716
ExecutionTime = 8.47 s  ClockTime = 8 s

Time = 116

smoothSolver:  Solving for Ux, Initial residual = 0.00281484350854, Final residual = 0.000145831686596, No Iterations 3
smoothSolver:  Solving for Uy, Initial residual = 0.0149543311529, Final residual = 0.0014105711246, No Iterations 3
smoothSolver:  Solving for Uz, Initial residual = 0.00602416974116, Final residual = 0.000392650124119, No Iterations 4
GAMG:  Solving for p, Initial residual = 0.0290813496772, Final residual = 0.00101276521298, No Iterations 9
time step continuity errors : sum local = 2.20401235722, global = -0.126425246319, cumulative = 164.18516147
ExecutionTime = 8.54 s  ClockTime = 8 s

Time = 117

smoothSolver:  Solving for Ux, Initial residual = 0.00280922194694, Final residual = 0.000144281771918, No Iterations 3
smoothSolver:  Solving for Uy, Initial residual = 0.014253586031, Final residual = 0.00133604159011, No Iterations 3
smoothSolver:  Solving for Uz, Initial residual = 0.00595210374573, Final residual = 0.000390598523061, No Iterations 4
GAMG:  Solving for p, Initial residual = 0.0273727595915, Final residual = 0.00122919818877, No Iterations 7
time step continuity errors : sum local = 2.77733118794, global = -0.142923113819, cumulative = 164.042238356
ExecutionTime = 8.6 s  ClockTime = 8 s

Time = 118

smoothSolver:  Solving for Ux, Initial residual = 0.00278630269747, Final residual = 0.000141769918094, No Iterations 3
smoothSolver:  Solving for Uy, Initial residual = 0.0132154459408, Final residual = 0.0012265373662, No Iterations 3
smoothSolver:  Solving for Uz, Initial residual = 0.00587262052517, Final residual = 0.000388848912443, No Iterations 4
GAMG:  Solving for p, Initial residual = 0.024736905398, Final residual = 0.00113481163416, No Iterations 7
time step continuity errors : sum local = 2.66303311226, global = -0.129081818794, cumulative = 163.913156537
ExecutionTime = 8.68 s  ClockTime = 8 s

Time = 119

smoothSolver:  Solving for Ux, Initial residual = 0.00274522870143, Final residual = 0.000139311215774, No Iterations 3
smoothSolver:  Solving for Uy, Initial residual = 0.0123798990716, Final residual = 0.00116835449737, No Iterations 3
smoothSolver:  Solving for Uz, Initial residual = 0.00577897167592, Final residual = 0.000386299959266, No Iterations 4
GAMG:  Solving for p, Initial residual = 0.0213863684819, Final residual = 0.000643884442961, No Iterations 9
time step continuity errors : sum local = 1.5840409347, global = 0.0187035123673, cumulative = 163.93186005
ExecutionTime = 8.75 s  ClockTime = 8 s

Time = 120

smoothSolver:  Solving for Ux, Initial residual = 0.00269118238273, Final residual = 0.000138578185291, No Iterations 3
smoothSolver:  Solving for Uy, Initial residual = 0.0115314119955, Final residual = 0.00109946759576, No Iterations 3
smoothSolver:  Solving for Uz, Initial residual = 0.00570507999711, Final residual = 0.000385308094369, No Iterations 4
GAMG:  Solving for p, Initial residual = 0.0178383662443, Final residual = 0.00072895540257, No Iterations 9
time step continuity errors : sum local = 1.88087265574, global = -0.0733772355985, cumulative = 163.858482814
ExecutionTime = 8.82 s  ClockTime = 8 s

Time = 121

smoothSolver:  Solving for Ux, Initial residual = 0.00263427357513, Final residual = 0.000138891545885, No Iterations 3
smoothSolver:  Solving for Uy, Initial residual = 0.0103783904132, Final residual = 0.000985305273163, No Iterations 3
smoothSolver:  Solving for Uz, Initial residual = 0.00567966510996, Final residual = 0.000388437387872, No Iterations 4
GAMG:  Solving for p, Initial residual = 0.0151102778793, Final residual = 0.000614612156632, No Iterations 12
time step continuity errors : sum local = 1.66481593451, global = 0.119673892497, cumulative = 163.978156707
ExecutionTime = 8.9 s  ClockTime = 8 s

Time = 122

smoothSolver:  Solving for Ux, Initial residual = 0.00256932826453, Final residual = 0.000139647084503, No Iterations 3
smoothSolver:  Solving for Uy, Initial residual = 0.00962709180912, Final residual = 0.000930331194911, No Iterations 3
smoothSolver:  Solving for Uz, Initial residual = 0.00564530952314, Final residual = 0.000388792112159, No Iterations 4
GAMG:  Solving for p, Initial residual = 0.0133914315746, Final residual = 0.000502389468282, No Iterations 10
time step continuity errors : sum local = 1.3938822571, global = -0.0451227691802, cumulative = 163.933033937
ExecutionTime = 8.97 s  ClockTime = 9 s

Time = 123

smoothSolver:  Solving for Ux, Initial residual = 0.0024943257026, Final residual = 0.000140108296232, No Iterations 3
smoothSolver:  Solving for Uy, Initial residual = 0.00862589398226, Final residual = 0.000846394723376, No Iterations 3
smoothSolver:  Solving for Uz, Initial residual = 0.00558468304951, Final residual = 0.000386620945096, No Iterations 4
GAMG:  Solving for p, Initial residual = 0.0126984100926, Final residual = 0.000364464059285, No Iterations 10
time step continuity errors : sum local = 1.01323098261, global = 0.0200990592247, cumulative = 163.953132997
ExecutionTime = 9.05 s  ClockTime = 9 s

Time = 124

smoothSolver:  Solving for Ux, Initial residual = 0.00240944311811, Final residual = 0.000139972665948, No Iterations 3
smoothSolver:  Solving for Uy, Initial residual = 0.00747143677192, Final residual = 0.000741097502486, No Iterations 3
smoothSolver:  Solving for Uz, Initial residual = 0.00552246402175, Final residual = 0.000384772506953, No Iterations 4
GAMG:  Solving for p, Initial residual = 0.0123619863514, Final residual = 0.000535929090781, No Iterations 7
time step continuity errors : sum local = 1.4819947691, global = -0.0119935786919, cumulative = 163.941139418
ExecutionTime = 9.12 s  ClockTime = 9 s

Time = 125

smoothSolver:  Solving for Ux, Initial residual = 0.00232623196568, Final residual = 0.000139294273503, No Iterations 3
smoothSolver:  Solving for Uy, Initial residual = 0.00653614656654, Final residual = 0.000639139130633, No Iterations 3
smoothSolver:  Solving for Uz, Initial residual = 0.00547067520162, Final residual = 0.000386615318466, No Iterations 4
GAMG:  Solving for p, Initial residual = 0.0116882202811, Final residual = 0.000518754288379, No Iterations 7
time step continuity errors : sum local = 1.45149998407, global = 0.0425150040853, cumulative = 163.983654422
ExecutionTime = 9.19 s  ClockTime = 9 s

Time = 126

[...]
smoothSolver:  Solving for Uz, Initial residual = 1.2005362474e-05, Final residual = 6.56751550378e-06, No Iterations 1
GAMG:  Solving for p, Initial residual = 7.16598543366e-06, Final residual = 9.82979916615e-07, No Iterations 4
time step continuity errors : sum local = 7.87179343448e-06, global = 3.99629694399e-08, cumulative = 167.376769063
ExecutionTime = 150.77 s  ClockTime = 150 s

Time = 2071

smoothSolver:  Solving for Ux, Initial residual = 2.67141144722e-05, Final residual = 7.95124196873e-06, No Iterations 2
smoothSolver:  Solving for Uy, Initial residual = 0.000196266689802, Final residual = 1.75476642554e-05, No Iterations 4
smoothSolver:  Solving for Uz, Initial residual = 1.18951167198e-05, Final residual = 6.50719113605e-06, No Iterations 1
GAMG:  Solving for p, Initial residual = 7.1518069585e-06, Final residual = 9.17898443397e-07, No Iterations 4
time step continuity errors : sum local = 7.35043029302e-06, global = -9.34831228039e-09, cumulative = 167.376769054
ExecutionTime = 150.84 s  ClockTime = 150 s

Time = 2072

smoothSolver:  Solving for Ux, Initial residual = 2.65535995421e-05, Final residual = 7.90279465434e-06, No Iterations 2
smoothSolver:  Solving for Uy, Initial residual = 0.00019419237296, Final residual = 1.73615461067e-05, No Iterations 4
smoothSolver:  Solving for Uz, Initial residual = 1.1783747694e-05, Final residual = 6.44625188299e-06, No Iterations 1
GAMG:  Solving for p, Initial residual = 7.12715443691e-06, Final residual = 4.43924961733e-07, No Iterations 5
time step continuity errors : sum local = 3.55480556311e-06, global = -1.04175839008e-08, cumulative = 167.376769044
ExecutionTime = 150.91 s  ClockTime = 150 s

Time = 2073

smoothSolver:  Solving for Ux, Initial residual = 2.63890082005e-05, Final residual = 7.85357786609e-06, No Iterations 2
smoothSolver:  Solving for Uy, Initial residual = 0.000192127433301, Final residual = 1.71760013558e-05, No Iterations 4
smoothSolver:  Solving for Uz, Initial residual = 1.16709896569e-05, Final residual = 6.3845492285e-06, No Iterations 1
GAMG:  Solving for p, Initial residual = 7.12907654187e-06, Final residual = 8.5413350266e-07, No Iterations 4
time step continuity errors : sum local = 6.83945917705e-06, global = -1.895977034e-08, cumulative = 167.376769025
ExecutionTime = 150.98 s  ClockTime = 151 s

Time = 2074

smoothSolver:  Solving for Ux, Initial residual = 2.62215292485e-05, Final residual = 7.80362016809e-06, No Iterations 2
smoothSolver:  Solving for Uy, Initial residual = 0.000190002914352, Final residual = 1.69858445244e-05, No Iterations 4
smoothSolver:  Solving for Uz, Initial residual = 1.1557474219e-05, Final residual = 6.32242860267e-06, No Iterations 1
GAMG:  Solving for p, Initial residual = 7.06102485257e-06, Final residual = 4.6768439381e-07, No Iterations 5
time step continuity errors : sum local = 3.74487387885e-06, global = -2.53962732033e-08, cumulative = 167.376768999
ExecutionTime = 151.06 s  ClockTime = 151 s

Time = 2075

smoothSolver:  Solving for Ux, Initial residual = 2.60511820029e-05, Final residual = 7.75295345737e-06, No Iterations 2
smoothSolver:  Solving for Uy, Initial residual = 0.000187884235847, Final residual = 1.67957183192e-05, No Iterations 4
smoothSolver:  Solving for Uz, Initial residual = 1.14425927397e-05, Final residual = 6.25956841387e-06, No Iterations 1
GAMG:  Solving for p, Initial residual = 7.07433614608e-06, Final residual = 9.06167245092e-07, No Iterations 4
time step continuity errors : sum local = 7.25575648592e-06, global = 2.82024989117e-08, cumulative = 167.376769027
ExecutionTime = 151.12 s  ClockTime = 151 s

Time = 2076

smoothSolver:  Solving for Ux, Initial residual = 2.58792570587e-05, Final residual = 7.70132174476e-06, No Iterations 2
smoothSolver:  Solving for Uy, Initial residual = 0.00018573009933, Final residual = 1.66028375349e-05, No Iterations 4
smoothSolver:  Solving for Uz, Initial residual = 1.13268988797e-05, Final residual = 6.196265368e-06, No Iterations 1
GAMG:  Solving for p, Initial residual = 7.01091201858e-06, Final residual = 9.76871213418e-07, No Iterations 4
time step continuity errors : sum local = 7.82169726604e-06, global = 3.45853650745e-08, cumulative = 167.376769062
ExecutionTime = 151.19 s  ClockTime = 151 s

Time = 2077

smoothSolver:  Solving for Ux, Initial residual = 2.57194085664e-05, Final residual = 7.65323159757e-06, No Iterations 2
smoothSolver:  Solving for Uy, Initial residual = 0.000183680350802, Final residual = 1.64189959856e-05, No Iterations 4
smoothSolver:  Solving for Uz, Initial residual = 1.12165005215e-05, Final residual = 6.13585721679e-06, No Iterations 1
GAMG:  Solving for p, Initial residual = 6.99422628133e-06, Final residual = 9.02489934118e-07, No Iterations 4
time step continuity errors : sum local = 7.22595763443e-06, global = -1.38987218051e-08, cumulative = 167.376769048
ExecutionTime = 151.27 s  ClockTime = 151 s

Time = 2078

smoothSolver:  Solving for Ux, Initial residual = 2.55574983762e-05, Final residual = 7.60450628423e-06, No Iterations 2
smoothSolver:  Solving for Uy, Initial residual = 0.000181633268452, Final residual = 1.62354415048e-05, No Iterations 4
smoothSolver:  Solving for Uz, Initial residual = 1.11051758765e-05, Final residual = 6.07493982677e-06, No Iterations 1
GAMG:  Solving for p, Initial residual = 6.95983287147e-06, Final residual = 9.95413218635e-07, No Iterations 4
time step continuity errors : sum local = 7.96975273745e-06, global = 3.76883464385e-08, cumulative = 167.376769086
ExecutionTime = 151.34 s  ClockTime = 151 s

Time = 2079

smoothSolver:  Solving for Ux, Initial residual = 2.53961023635e-05, Final residual = 7.55620198168e-06, No Iterations 2
smoothSolver:  Solving for Uy, Initial residual = 0.000179607274962, Final residual = 1.60536432765e-05, No Iterations 4
smoothSolver:  Solving for Uz, Initial residual = 1.09945227814e-05, Final residual = 6.01439424764e-06, No Iterations 1
GAMG:  Solving for p, Initial residual = 6.95030131925e-06, Final residual = 9.74407325505e-07, No Iterations 4
time step continuity errors : sum local = 7.80138189255e-06, global = 3.73751716495e-08, cumulative = 167.376769123
ExecutionTime = 151.41 s  ClockTime = 151 s

Time = 2080

smoothSolver:  Solving for Ux, Initial residual = 2.52457784013e-05, Final residual = 7.51142574913e-06, No Iterations 2
smoothSolver:  Solving for Uy, Initial residual = 0.000177683364425, Final residual = 1.58810236195e-05, No Iterations 4
smoothSolver:  Solving for Uz, Initial residual = 1.08897954143e-05, Final residual = 5.95709246435e-06, No Iterations 1
GAMG:  Solving for p, Initial residual = 6.93534080121e-06, Final residual = 9.69861765781e-07, No Iterations 4
time step continuity errors : sum local = 7.76480186034e-06, global = 3.86062139069e-08, cumulative = 167.376769162
ExecutionTime = 151.48 s  ClockTime = 151 s

Time = 2081

smoothSolver:  Solving for Ux, Initial residual = 2.50939072722e-05, Final residual = 7.46597423664e-06, No Iterations 2
smoothSolver:  Solving for Uy, Initial residual = 0.000175732440584, Final residual = 1.57060779237e-05, No Iterations 4
smoothSolver:  Solving for Uz, Initial residual = 1.07833912111e-05, Final residual = 5.89887592602e-06, No Iterations 1
GAMG:  Solving for p, Initial residual = 6.91447760301e-06, Final residual = 9.01559783987e-07, No Iterations 4
time step continuity errors : sum local = 7.21779577528e-06, global = -1.07509671212e-08, cumulative = 167.376769151
ExecutionTime = 151.55 s  ClockTime = 151 s

Time = 2082

smoothSolver:  Solving for Ux, Initial residual = 2.49490408762e-05, Final residual = 7.4226104738e-06, No Iterations 2
smoothSolver:  Solving for Uy, Initial residual = 0.0001738412596, Final residual = 1.5536598541e-05, No Iterations 4
smoothSolver:  Solving for Uz, Initial residual = 1.06806197977e-05, Final residual = 5.84263478925e-06, No Iterations 1
GAMG:  Solving for p, Initial residual = 6.87839793055e-06, Final residual = 9.86583215861e-07, No Iterations 4
time step continuity errors : sum local = 7.89827632611e-06, global = 3.60272080939e-08, cumulative = 167.376769187
ExecutionTime = 151.62 s  ClockTime = 151 s

Time = 2083

smoothSolver:  Solving for Ux, Initial residual = 2.48098531787e-05, Final residual = 7.38037978509e-06, No Iterations 2
smoothSolver:  Solving for Uy, Initial residual = 0.000171982238481, Final residual = 1.53700420731e-05, No Iterations 4
smoothSolver:  Solving for Uz, Initial residual = 1.05798738425e-05, Final residual = 5.78751063628e-06, No Iterations 1
GAMG:  Solving for p, Initial residual = 6.87507666875e-06, Final residual = 9.77426054558e-07, No Iterations 4
time step continuity errors : sum local = 7.82478087098e-06, global = 3.8629146609e-08, cumulative = 167.376769226
ExecutionTime = 151.7 s  ClockTime = 151 s

Time = 2084

smoothSolver:  Solving for Ux, Initial residual = 2.46648400991e-05, Final residual = 7.33739685535e-06, No Iterations 2
smoothSolver:  Solving for Uy, Initial residual = 0.0001701135244, Final residual = 1.52024808466e-05, No Iterations 4
smoothSolver:  Solving for Uz, Initial residual = 1.04781801937e-05, Final residual = 5.7318608569e-06, No Iterations 1
GAMG:  Solving for p, Initial residual = 6.85993541499e-06, Final residual = 9.70157068531e-07, No Iterations 4
time step continuity errors : sum local = 7.76640483385e-06, global = 3.88609536787e-08, cumulative = 167.376769265
ExecutionTime = 151.78 s  ClockTime = 151 s

Time = 2085

smoothSolver:  Solving for Ux, Initial residual = 2.45185331066e-05, Final residual = 7.29397905488e-06, No Iterations 2
smoothSolver:  Solving for Uy, Initial residual = 0.000168234443153, Final residual = 1.50339182834e-05, No Iterations 4
smoothSolver:  Solving for Uz, Initial residual = 1.03756406439e-05, Final residual = 5.67575403768e-06, No Iterations 1
GAMG:  Solving for p, Initial residual = 6.84364274156e-06, Final residual = 9.60907380839e-07, No Iterations 4
time step continuity errors : sum local = 7.69217537617e-06, global = 3.90279153017e-08, cumulative = 167.376769304
ExecutionTime = 151.84 s  ClockTime = 151 s

Time = 2086

smoothSolver:  Solving for Ux, Initial residual = 2.43698074072e-05, Final residual = 7.2500720129e-06, No Iterations 2
smoothSolver:  Solving for Uy, Initial residual = 0.000166345040675, Final residual = 1.48645149861e-05, No Iterations 4
smoothSolver:  Solving for Uz, Initial residual = 1.02723136166e-05, Final residual = 5.61921613503e-06, No Iterations 1
GAMG:  Solving for p, Initial residual = 6.82641845252e-06, Final residual = 8.91271453122e-07, No Iterations 4
time step continuity errors : sum local = 7.13456151558e-06, global = -9.29100365055e-09, cumulative = 167.376769294
ExecutionTime = 151.92 s  ClockTime = 151 s

Time = 2087

smoothSolver:  Solving for Ux, Initial residual = 2.42227410522e-05, Final residual = 7.20657895672e-06, No Iterations 2
smoothSolver:  Solving for Uy, Initial residual = 0.000164469965835, Final residual = 1.4696441178e-05, No Iterations 4
smoothSolver:  Solving for Uz, Initial residual = 1.01696285746e-05, Final residual = 5.56301414531e-06, No Iterations 1
GAMG:  Solving for p, Initial residual = 6.79892902872e-06, Final residual = 9.78910173689e-07, No Iterations 4
time step continuity errors : sum local = 7.83589894424e-06, global = 3.9574899165e-08, cumulative = 167.376769334
ExecutionTime = 151.99 s  ClockTime = 152 s

Time = 2088

smoothSolver:  Solving for Ux, Initial residual = 2.40851110753e-05, Final residual = 7.16538043089e-06, No Iterations 2
smoothSolver:  Solving for Uy, Initial residual = 0.000162649017807, Final residual = 1.45330554736e-05, No Iterations 4
smoothSolver:  Solving for Uz, Initial residual = 1.00700503727e-05, Final residual = 5.50851690702e-06, No Iterations 1
GAMG:  Solving for p, Initial residual = 6.79535574962e-06, Final residual = 9.5359202846e-07, No Iterations 4
time step continuity errors : sum local = 7.63305551524e-06, global = 3.78137721335e-08, cumulative = 167.376769372
ExecutionTime = 152.07 s  ClockTime = 152 s

Time = 2089

smoothSolver:  Solving for Ux, Initial residual = 2.39456629164e-05, Final residual = 7.12338495517e-06, No Iterations 2
smoothSolver:  Solving for Uy, Initial residual = 0.000160815813203, Final residual = 1.43685722278e-05, No Iterations 4
smoothSolver:  Solving for Uz, Initial residual = 9.96934908357e-06, Final residual = 9.96934908357e-06, No Iterations 0
GAMG:  Solving for p, Initial residual = 0.000111168011736, Final residual = 5.45236840161e-06, No Iterations 9
time step continuity errors : sum local = 4.36435814677e-05, global = 1.87481084929e-07, cumulative = 167.376769559
ExecutionTime = 152.15 s  ClockTime = 152 s

Time = 2090

smoothSolver:  Solving for Ux, Initial residual = 2.39071036803e-05, Final residual = 7.11306074944e-06, No Iterations 2
smoothSolver:  Solving for Uy, Initial residual = 0.00012859650958, Final residual = 1.13527832731e-05, No Iterations 4
smoothSolver:  Solving for Uz, Initial residual = 1.0308332233e-05, Final residual = 5.63350441556e-06, No Iterations 1
GAMG:  Solving for p, Initial residual = 6.93651947349e-05, Final residual = 2.90065878081e-06, No Iterations 9
time step continuity errors : sum local = 2.32162799528e-05, global = -3.12087471051e-08, cumulative = 167.376769528
ExecutionTime = 152.24 s  ClockTime = 152 s

Time = 2091

smoothSolver:  Solving for Ux, Initial residual = 2.39579111639e-05, Final residual = 7.1091060442e-06, No Iterations 2
smoothSolver:  Solving for Uy, Initial residual = 0.00012701070529, Final residual = 1.13281359614e-05, No Iterations 4
smoothSolver:  Solving for Uz, Initial residual = 1.02793063045e-05, Final residual = 5.61886612443e-06, No Iterations 1
GAMG:  Solving for p, Initial residual = 5.35796892234e-05, Final residual = 2.57088809514e-06, No Iterations 8
time step continuity errors : sum local = 2.05757639289e-05, global = 6.05029570085e-09, cumulative = 167.376769534
ExecutionTime = 152.32 s  ClockTime = 152 s

Time = 2092

smoothSolver:  Solving for Ux, Initial residual = 2.38671667476e-05, Final residual = 7.08605568499e-06, No Iterations 2
smoothSolver:  Solving for Uy, Initial residual = 0.00013453058757, Final residual = 1.2015954375e-05, No Iterations 4
smoothSolver:  Solving for Uz, Initial residual = 1.00967579641e-05, Final residual = 5.52142938202e-06, No Iterations 1
GAMG:  Solving for p, Initial residual = 5.89344451015e-05, Final residual = 2.36447614528e-06, No Iterations 9
time step continuity errors : sum local = 1.8923354864e-05, global = -2.36269823094e-08, cumulative = 167.37676951
ExecutionTime = 152.4 s  ClockTime = 152 s

Time = 2093

smoothSolver:  Solving for Ux, Initial residual = 2.36739909901e-05, Final residual = 7.04257843315e-06, No Iterations 2
smoothSolver:  Solving for Uy, Initial residual = 0.000146796141215, Final residual = 1.3096119035e-05, No Iterations 4
smoothSolver:  Solving for Uz, Initial residual = 9.86152116393e-06, Final residual = 9.86152116393e-06, No Iterations 0
GAMG:  Solving for p, Initial residual = 8.82952989659e-05, Final residual = 3.06984672515e-06, No Iterations 10
time step continuity errors : sum local = 2.45686693867e-05, global = 8.21225510956e-08, cumulative = 167.376769592
ExecutionTime = 152.49 s  ClockTime = 152 s

Time = 2094

smoothSolver:  Solving for Ux, Initial residual = 2.35898278876e-05, Final residual = 7.01765539464e-06, No Iterations 2
smoothSolver:  Solving for Uy, Initial residual = 0.000123328606105, Final residual = 1.0908691066e-05, No Iterations 4
smoothSolver:  Solving for Uz, Initial residual = 1.00763527084e-05, Final residual = 5.50862323228e-06, No Iterations 1
GAMG:  Solving for p, Initial residual = 5.29514798878e-05, Final residual = 2.08155356833e-06, No Iterations 10
time step continuity errors : sum local = 1.66576914779e-05, global = -4.34819601327e-08, cumulative = 167.376769549
ExecutionTime = 152.57 s  ClockTime = 152 s

Time = 2095

smoothSolver:  Solving for Ux, Initial residual = 2.35518272817e-05, Final residual = 6.99833390342e-06, No Iterations 2
smoothSolver:  Solving for Uy, Initial residual = 0.000127426654268, Final residual = 1.13849660236e-05, No Iterations 4
smoothSolver:  Solving for Uz, Initial residual = 9.97765179584e-06, Final residual = 9.97765179584e-06, No Iterations 0
GAMG:  Solving for p, Initial residual = 8.39336684445e-05, Final residual = 3.82510788847e-06, No Iterations 9
time step continuity errors : sum local = 3.06108057866e-05, global = 1.02851394086e-07, cumulative = 167.376769652
ExecutionTime = 152.64 s  ClockTime = 152 s

Time = 2096

smoothSolver:  Solving for Ux, Initial residual = 2.35580289151e-05, Final residual = 6.99098870535e-06, No Iterations 2
smoothSolver:  Solving for Uy, Initial residual = 0.00010404290632, Final residual = 9.17630893132e-06, No Iterations 4
smoothSolver:  Solving for Uz, Initial residual = 1.021536547e-05, Final residual = 5.58241189564e-06, No Iterations 1
GAMG:  Solving for p, Initial residual = 6.14062403257e-05, Final residual = 2.13974533529e-06, No Iterations 10
time step continuity errors : sum local = 1.71222614395e-05, global = -5.16094895698e-08, cumulative = 167.3767696
ExecutionTime = 152.72 s  ClockTime = 152 s

Time = 2097

smoothSolver:  Solving for Ux, Initial residual = 2.35726138651e-05, Final residual = 6.98730814649e-06, No Iterations 2
smoothSolver:  Solving for Uy, Initial residual = 0.000114995789436, Final residual = 1.02671332808e-05, No Iterations 4
smoothSolver:  Solving for Uz, Initial residual = 1.00691128272e-05, Final residual = 5.50520998397e-06, No Iterations 1
GAMG:  Solving for p, Initial residual = 7.1760320992e-05, Final residual = 2.78513202617e-06, No Iterations 9
time step continuity errors : sum local = 2.22861461686e-05, global = -4.89897917827e-08, cumulative = 167.376769551
ExecutionTime = 152.79 s  ClockTime = 152 s

Time = 2098

smoothSolver:  Solving for Ux, Initial residual = 2.33870293848e-05, Final residual = 6.94901332748e-06, No Iterations 2
smoothSolver:  Solving for Uy, Initial residual = 0.000130593727952, Final residual = 1.16501889865e-05, No Iterations 4
smoothSolver:  Solving for Uz, Initial residual = 9.79246588796e-06, Final residual = 9.79246588796e-06, No Iterations 0
GAMG:  Solving for p, Initial residual = 6.80489027173e-05, Final residual = 2.45781292822e-06, No Iterations 10
time step continuity errors : sum local = 1.96677108454e-05, global = 3.87608681308e-08, cumulative = 167.37676959
ExecutionTime = 152.87 s  ClockTime = 152 s

Time = 2099

smoothSolver:  Solving for Ux, Initial residual = 2.32875865602e-05, Final residual = 6.92291417421e-06, No Iterations 2
smoothSolver:  Solving for Uy, Initial residual = 0.000113840440893, Final residual = 1.00803151033e-05, No Iterations 4
smoothSolver:  Solving for Uz, Initial residual = 9.94395726055e-06, Final residual = 9.94395726055e-06, No Iterations 0
GAMG:  Solving for p, Initial residual = 9.43972273952e-05, Final residual = 3.58869846965e-06, No Iterations 9
time step continuity errors : sum local = 2.87157094797e-05, global = 8.60880013305e-08, cumulative = 167.376769676
ExecutionTime = 152.94 s  ClockTime = 153 s

Time = 2100

smoothSolver:  Solving for Ux, Initial residual = 2.34213352873e-05, Final residual = 6.94004468955e-06, No Iterations 2
smoothSolver:  Solving for Uy, Initial residual = 9.23863321318e-05, Final residual = 8.12187361516e-06, No Iterations 4
smoothSolver:  Solving for Uz, Initial residual = 1.02486692837e-05, Final residual = 5.59952473178e-06, No Iterations 1
GAMG:  Solving for p, Initial residual = 6.61337322321e-05, Final residual = 2.51507968441e-06, No Iterations 10
time step continuity errors : sum local = 2.01235913317e-05, global = -2.17275302338e-08, cumulative = 167.376769654
ExecutionTime = 153.01 s  ClockTime = 153 s


SIMPLE solution converged in 2100 iterations

    writing object shearStress
End

Finalising parallel run
