/*---------------------------------------------------------------------------*\
  =========                 |
  \\      /  F ield         | OpenFOAM: The Open Source CFD Toolbox
   \\    /   O peration     | Website:  https://openfoam.org
    \\  /    A nd           | Version:  9
     \\/     M anipulation  |
\*---------------------------------------------------------------------------*/
Build  : 9-b456138dc4bc
Exec   : simpleFoam -parallel
Date   : Jul 04 2022
Time   : 19:45:26
Host   : "KORIN-LAB"
PID    : 3608
I/O    : uncollated
Case   : /home/colin/OpenFOAM/colin-9/run/wsl/wedge_needle/concentration/4/90_needle_layer
nProcs : 6
Slaves : 
5
(
"KORIN-LAB.3609"
"KORIN-LAB.3610"
"KORIN-LAB.3611"
"KORIN-LAB.3612"
"KORIN-LAB.3613"
)

Pstream initialised with:
    floatTransfer      : 0
    nProcsSimpleSum    : 0
    commsType          : nonBlocking
    polling iterations : 0
sigFpe : Enabling floating point exception trapping (FOAM_SIGFPE).
fileModificationChecking : Monitoring run-time modified files using timeStampMaster (fileModificationSkew 10)
allowSystemOperations : Allowing user-supplied system call operations

// * * * * * * * * * * * * * * * * * * * * * * * * * * * * * * * * * * * * * //
Create time

Create mesh for time = 0


SIMPLE: Convergence criteria found
        p: tolerance 0.001
        U: tolerance 0.0001
        "(k|epsilon|omega|f|v2)": tolerance 0.0001

Reading field p

Reading field U

Reading/calculating face flux field phi

Selecting incompressible transport model powerLaw
Selecting turbulence model type laminar
Selecting laminar stress model Stokes
No MRF models present

No fvModels present
No fvConstraints present

Starting time loop

wallShearStress wallShearStress:
    processing all wall patches

Time = 1

smoothSolver:  Solving for Ux, Initial residual = 0.992801444818, Final residual = 0.0802220514883, No Iterations 2
smoothSolver:  Solving for Uy, Initial residual = 1, Final residual = 0.0572562251193, No Iterations 2
smoothSolver:  Solving for Uz, Initial residual = 1, Final residual = 0.0816529803376, No Iterations 2
GAMG:  Solving for p, Initial residual = 0.999999999986, Final residual = 0.0422122108575, No Iterations 32
time step continuity errors : sum local = 0.021927011152, global = -0.000279621401634, cumulative = -0.000279621401634
ExecutionTime = 0.16 s  ClockTime = 0 s

Time = 2

smoothSolver:  Solving for Ux, Initial residual = 0.782269868937, Final residual = 0.0716659224438, No Iterations 3
smoothSolver:  Solving for Uy, Initial residual = 0.987999573323, Final residual = 0.08613725602, No Iterations 4
smoothSolver:  Solving for Uz, Initial residual = 0.986900321803, Final residual = 0.0838043703416, No Iterations 4
GAMG:  Solving for p, Initial residual = 0.00629238815425, Final residual = 0.000193529914922, No Iterations 13
time step continuity errors : sum local = 160.477794763, global = 1.33524908296, cumulative = 1.33496946156
ExecutionTime = 0.23 s  ClockTime = 0 s

Time = 3

smoothSolver:  Solving for Ux, Initial residual = 0.707636945842, Final residual = 0.0438109155581, No Iterations 3
smoothSolver:  Solving for Uy, Initial residual = 0.0845512317247, Final residual = 0.00712156739846, No Iterations 4
smoothSolver:  Solving for Uz, Initial residual = 0.0733449060917, Final residual = 0.00621473450262, No Iterations 4
GAMG:  Solving for p, Initial residual = 0.0187572312398, Final residual = 0.000741479470528, No Iterations 14
time step continuity errors : sum local = 115.847838116, global = 0.976367599988, cumulative = 2.31133706154
ExecutionTime = 0.31 s  ClockTime = 0 s

Time = 4

smoothSolver:  Solving for Ux, Initial residual = 0.0379057126364, Final residual = 0.00259920371425, No Iterations 3
smoothSolver:  Solving for Uy, Initial residual = 0.0693121098087, Final residual = 0.00589964049952, No Iterations 4
smoothSolver:  Solving for Uz, Initial residual = 0.0160933587923, Final residual = 0.00114010180785, No Iterations 4
GAMG:  Solving for p, Initial residual = 0.371198904056, Final residual = 0.018301414604, No Iterations 8
time step continuity errors : sum local = 246.294662464, global = 1.78788863893, cumulative = 4.09922570048
ExecutionTime = 0.37 s  ClockTime = 0 s

Time = 5

smoothSolver:  Solving for Ux, Initial residual = 0.0114113674981, Final residual = 0.000905448865766, No Iterations 3
smoothSolver:  Solving for Uy, Initial residual = 0.0218857913458, Final residual = 0.00167697179736, No Iterations 4
smoothSolver:  Solving for Uz, Initial residual = 0.0646980790369, Final residual = 0.00536377281986, No Iterations 4
GAMG:  Solving for p, Initial residual = 0.0437052585242, Final residual = 0.00124956921378, No Iterations 8
time step continuity errors : sum local = 74.0970919212, global = -0.171584971622, cumulative = 3.92764072885
ExecutionTime = 0.44 s  ClockTime = 0 s

Time = 6

smoothSolver:  Solving for Ux, Initial residual = 0.00724237883582, Final residual = 0.000346398585495, No Iterations 3
smoothSolver:  Solving for Uy, Initial residual = 0.188126921135, Final residual = 0.0159392032563, No Iterations 4
smoothSolver:  Solving for Uz, Initial residual = 0.181269277234, Final residual = 0.0152927181194, No Iterations 4
GAMG:  Solving for p, Initial residual = 0.0294279865022, Final residual = 0.00109169602751, No Iterations 13
time step continuity errors : sum local = 47.0712128065, global = -0.532604330211, cumulative = 3.39503639864
ExecutionTime = 0.52 s  ClockTime = 0 s

Time = 7

smoothSolver:  Solving for Ux, Initial residual = 0.00745718842513, Final residual = 0.000342154258045, No Iterations 3
smoothSolver:  Solving for Uy, Initial residual = 0.299132888211, Final residual = 0.0255054556488, No Iterations 4
smoothSolver:  Solving for Uz, Initial residual = 0.173858181837, Final residual = 0.0145695124687, No Iterations 4
GAMG:  Solving for p, Initial residual = 0.0830674138747, Final residual = 0.00375206825895, No Iterations 11
time step continuity errors : sum local = 95.1787040391, global = -5.66766837404, cumulative = -2.2726319754
ExecutionTime = 0.59 s  ClockTime = 0 s

Time = 8

smoothSolver:  Solving for Ux, Initial residual = 0.00725564219873, Final residual = 0.000395414353456, No Iterations 3
smoothSolver:  Solving for Uy, Initial residual = 0.0770541250268, Final residual = 0.00645094687405, No Iterations 4
smoothSolver:  Solving for Uz, Initial residual = 0.051024878758, Final residual = 0.00414813325423, No Iterations 4
GAMG:  Solving for p, Initial residual = 0.273928842814, Final residual = 0.0128093023413, No Iterations 7
time step continuity errors : sum local = 82.6475967004, global = -4.90916105169, cumulative = -7.18179302709
ExecutionTime = 0.66 s  ClockTime = 0 s

Time = 9

smoothSolver:  Solving for Ux, Initial residual = 0.00597039115503, Final residual = 0.00038893804522, No Iterations 3
smoothSolver:  Solving for Uy, Initial residual = 0.0339157123825, Final residual = 0.00270985108177, No Iterations 4
smoothSolver:  Solving for Uz, Initial residual = 0.0356888668176, Final residual = 0.00288030047913, No Iterations 4
GAMG:  Solving for p, Initial residual = 0.231629535459, Final residual = 0.00987127372259, No Iterations 8
time step continuity errors : sum local = 42.2598434301, global = -3.91091960416, cumulative = -11.0927126312
ExecutionTime = 0.73 s  ClockTime = 0 s

Time = 10

smoothSolver:  Solving for Ux, Initial residual = 0.00421396391625, Final residual = 0.000339807171272, No Iterations 3
smoothSolver:  Solving for Uy, Initial residual = 0.126234342051, Final residual = 0.0107043343417, No Iterations 4
smoothSolver:  Solving for Uz, Initial residual = 0.0977256417438, Final residual = 0.00827359845104, No Iterations 4
GAMG:  Solving for p, Initial residual = 0.0782585260729, Final residual = 0.00323923797423, No Iterations 5
time step continuity errors : sum local = 20.9403594511, global = 0.361850723158, cumulative = -10.7308619081
ExecutionTime = 0.79 s  ClockTime = 0 s

Time = 11

smoothSolver:  Solving for Ux, Initial residual = 0.00297103741978, Final residual = 0.000258296968979, No Iterations 3
smoothSolver:  Solving for Uy, Initial residual = 0.450163182341, Final residual = 0.0385843751688, No Iterations 4
smoothSolver:  Solving for Uz, Initial residual = 0.189230350752, Final residual = 0.016198893125, No Iterations 4
GAMG:  Solving for p, Initial residual = 0.0297104653799, Final residual = 0.000924099836443, No Iterations 9
time step continuity errors : sum local = 17.0810452323, global = 0.0951669278327, cumulative = -10.6356949803
ExecutionTime = 0.86 s  ClockTime = 0 s

Time = 12

smoothSolver:  Solving for Ux, Initial residual = 0.00233846996013, Final residual = 0.000195598511288, No Iterations 3
smoothSolver:  Solving for Uy, Initial residual = 0.103362186092, Final residual = 0.00875715675432, No Iterations 4
smoothSolver:  Solving for Uz, Initial residual = 0.0803224512718, Final residual = 0.00687721662251, No Iterations 4
GAMG:  Solving for p, Initial residual = 0.0576929372231, Final residual = 0.0026992018149, No Iterations 8
time step continuity errors : sum local = 25.2067162287, global = 0.168322799677, cumulative = -10.4673721806
ExecutionTime = 0.93 s  ClockTime = 0 s

Time = 13

smoothSolver:  Solving for Ux, Initial residual = 0.00181229153972, Final residual = 0.000168794801298, No Iterations 3
smoothSolver:  Solving for Uy, Initial residual = 0.0402099800524, Final residual = 0.00333281628333, No Iterations 4
smoothSolver:  Solving for Uz, Initial residual = 0.0417840840918, Final residual = 0.00353812928728, No Iterations 4
GAMG:  Solving for p, Initial residual = 0.233376970217, Final residual = 0.0104502361909, No Iterations 9
time step continuity errors : sum local = 19.3918579901, global = 0.0101177482787, cumulative = -10.4572544323
ExecutionTime = 1 s  ClockTime = 1 s

Time = 14

smoothSolver:  Solving for Ux, Initial residual = 0.00170188298444, Final residual = 0.000166756057336, No Iterations 3
smoothSolver:  Solving for Uy, Initial residual = 0.0468264030026, Final residual = 0.00385529070681, No Iterations 4
smoothSolver:  Solving for Uz, Initial residual = 0.0419391231736, Final residual = 0.00352209569952, No Iterations 4
GAMG:  Solving for p, Initial residual = 0.0694460417166, Final residual = 0.0021441882697, No Iterations 6
time step continuity errors : sum local = 9.27833496241, global = 0.0903096863068, cumulative = -10.366944746
ExecutionTime = 1.07 s  ClockTime = 1 s

Time = 15

smoothSolver:  Solving for Ux, Initial residual = 0.00177957816654, Final residual = 0.000176522694848, No Iterations 3
smoothSolver:  Solving for Uy, Initial residual = 0.109220717772, Final residual = 0.00918937228732, No Iterations 4
smoothSolver:  Solving for Uz, Initial residual = 0.0533578442209, Final residual = 0.00446681781672, No Iterations 4
GAMG:  Solving for p, Initial residual = 0.0603982653463, Final residual = 0.00196492515893, No Iterations 6
time step continuity errors : sum local = 8.56353500143, global = -0.0665592684082, cumulative = -10.4335040144
ExecutionTime = 1.14 s  ClockTime = 1 s

Time = 16

smoothSolver:  Solving for Ux, Initial residual = 0.00190262643091, Final residual = 0.000185988351546, No Iterations 3
smoothSolver:  Solving for Uy, Initial residual = 0.187964268113, Final residual = 0.0154514403571, No Iterations 4
smoothSolver:  Solving for Uz, Initial residual = 0.0401216130593, Final residual = 0.00333427509593, No Iterations 4
GAMG:  Solving for p, Initial residual = 0.078109696066, Final residual = 0.00178735158113, No Iterations 9
time step continuity errors : sum local = 6.05875929067, global = -0.0361706659993, cumulative = -10.4696746804
ExecutionTime = 1.21 s  ClockTime = 1 s

Time = 17

smoothSolver:  Solving for Ux, Initial residual = 0.00192131531957, Final residual = 0.000190123134104, No Iterations 3
smoothSolver:  Solving for Uy, Initial residual = 0.0881597804297, Final residual = 0.00700968088026, No Iterations 4
smoothSolver:  Solving for Uz, Initial residual = 0.0270444757166, Final residual = 0.00220118849111, No Iterations 4
GAMG:  Solving for p, Initial residual = 0.164321197735, Final residual = 0.00597846906088, No Iterations 6
time step continuity errors : sum local = 8.94675780166, global = -0.0556001603831, cumulative = -10.5252748408
ExecutionTime = 1.29 s  ClockTime = 1 s

Time = 18

smoothSolver:  Solving for Ux, Initial residual = 0.00182463570737, Final residual = 9.48640884127e-05, No Iterations 4
smoothSolver:  Solving for Uy, Initial residual = 0.0644245808967, Final residual = 0.00505945160889, No Iterations 4
smoothSolver:  Solving for Uz, Initial residual = 0.0229399299194, Final residual = 0.00186408930503, No Iterations 4
GAMG:  Solving for p, Initial residual = 0.184571839219, Final residual = 0.00573874949721, No Iterations 6
time step continuity errors : sum local = 6.37731788178, global = -0.0258963436647, cumulative = -10.5511711844
ExecutionTime = 1.36 s  ClockTime = 1 s

Time = 19

smoothSolver:  Solving for Ux, Initial residual = 0.0016080000105, Final residual = 9.02800264221e-05, No Iterations 4
smoothSolver:  Solving for Uy, Initial residual = 0.099022634956, Final residual = 0.00823434168058, No Iterations 4
smoothSolver:  Solving for Uz, Initial residual = 0.0260390661058, Final residual = 0.00217058953247, No Iterations 4
GAMG:  Solving for p, Initial residual = 0.101877100527, Final residual = 0.00322709168909, No Iterations 6
time step continuity errors : sum local = 5.31498695901, global = 0.00721083372393, cumulative = -10.5439603507
ExecutionTime = 1.43 s  ClockTime = 1 s

Time = 20

smoothSolver:  Solving for Ux, Initial residual = 0.00139909079618, Final residual = 8.28900646515e-05, No Iterations 4
smoothSolver:  Solving for Uy, Initial residual = 0.0685270392973, Final residual = 0.00580960970947, No Iterations 4
smoothSolver:  Solving for Uz, Initial residual = 0.0278528901663, Final residual = 0.00237518715183, No Iterations 4
GAMG:  Solving for p, Initial residual = 0.0874713371424, Final residual = 0.00289896513428, No Iterations 6
time step continuity errors : sum local = 4.80887272829, global = 0.0210271408974, cumulative = -10.5229332098
ExecutionTime = 1.5 s  ClockTime = 1 s

Time = 21

smoothSolver:  Solving for Ux, Initial residual = 0.00127126054015, Final residual = 7.78422507988e-05, No Iterations 4
smoothSolver:  Solving for Uy, Initial residual = 0.0435936603677, Final residual = 0.00368241782288, No Iterations 4
smoothSolver:  Solving for Uz, Initial residual = 0.0289841852446, Final residual = 0.00248149749902, No Iterations 4
GAMG:  Solving for p, Initial residual = 0.0808103455751, Final residual = 0.00269928998072, No Iterations 6
time step continuity errors : sum local = 4.1545748659, global = -0.00536189716916, cumulative = -10.528295107
ExecutionTime = 1.58 s  ClockTime = 1 s

Time = 22

smoothSolver:  Solving for Ux, Initial residual = 0.00114233248724, Final residual = 7.39454726292e-05, No Iterations 4
smoothSolver:  Solving for Uy, Initial residual = 0.0332654905587, Final residual = 0.00281670434581, No Iterations 4
smoothSolver:  Solving for Uz, Initial residual = 0.0256010004031, Final residual = 0.00218039092112, No Iterations 4
GAMG:  Solving for p, Initial residual = 0.0987416916319, Final residual = 0.00303520000964, No Iterations 6
time step continuity errors : sum local = 3.28477793515, global = 0.0172172348505, cumulative = -10.5110778721
ExecutionTime = 1.65 s  ClockTime = 1 s

Time = 23

smoothSolver:  Solving for Ux, Initial residual = 0.00108186833494, Final residual = 7.1717456473e-05, No Iterations 4
smoothSolver:  Solving for Uy, Initial residual = 0.0249037433992, Final residual = 0.0020581424851, No Iterations 4
smoothSolver:  Solving for Uz, Initial residual = 0.0222807888039, Final residual = 0.00188859200549, No Iterations 4
GAMG:  Solving for p, Initial residual = 0.130877104071, Final residual = 0.00300590874853, No Iterations 6
time step continuity errors : sum local = 2.11070685998, global = -0.000711100972388, cumulative = -10.5117889731
ExecutionTime = 1.72 s  ClockTime = 1 s

Time = 24

smoothSolver:  Solving for Ux, Initial residual = 0.00105077397058, Final residual = 7.04957820411e-05, No Iterations 4
smoothSolver:  Solving for Uy, Initial residual = 0.0250150661027, Final residual = 0.00204813211229, No Iterations 4
smoothSolver:  Solving for Uz, Initial residual = 0.0195310553638, Final residual = 0.0016586205714, No Iterations 4
GAMG:  Solving for p, Initial residual = 0.17255560177, Final residual = 0.00660779994469, No Iterations 5
time step continuity errors : sum local = 3.16743346142, global = 0.0183818185664, cumulative = -10.4934071545
ExecutionTime = 1.79 s  ClockTime = 1 s

Time = 25

smoothSolver:  Solving for Ux, Initial residual = 0.0010282307679, Final residual = 6.97669249992e-05, No Iterations 4
smoothSolver:  Solving for Uy, Initial residual = 0.0245145167863, Final residual = 0.00198277266794, No Iterations 4
smoothSolver:  Solving for Uz, Initial residual = 0.0175774641574, Final residual = 0.00148906709881, No Iterations 4
GAMG:  Solving for p, Initial residual = 0.182717034742, Final residual = 0.00845504745647, No Iterations 5
time step continuity errors : sum local = 3.65693929948, global = 0.00215800650857, cumulative = -10.491249148
ExecutionTime = 1.86 s  ClockTime = 1 s

Time = 26

smoothSolver:  Solving for Ux, Initial residual = 0.00100080975626, Final residual = 6.87810842224e-05, No Iterations 4
smoothSolver:  Solving for Uy, Initial residual = 0.0203986025379, Final residual = 0.00163185524523, No Iterations 4
smoothSolver:  Solving for Uz, Initial residual = 0.0152290632481, Final residual = 0.0012743149937, No Iterations 4
GAMG:  Solving for p, Initial residual = 0.196910056475, Final residual = 0.0090767181395, No Iterations 4
time step continuity errors : sum local = 3.5758018431, global = -0.0239130000937, cumulative = -10.5151621481
ExecutionTime = 1.93 s  ClockTime = 1 s

Time = 27

smoothSolver:  Solving for Ux, Initial residual = 0.000976210203645, Final residual = 6.78222762372e-05, No Iterations 4
smoothSolver:  Solving for Uy, Initial residual = 0.0156937936774, Final residual = 0.00122742516742, No Iterations 4
smoothSolver:  Solving for Uz, Initial residual = 0.0132660811029, Final residual = 0.00109686302218, No Iterations 4
GAMG:  Solving for p, Initial residual = 0.185291835462, Final residual = 0.00914864867586, No Iterations 4
time step continuity errors : sum local = 3.61478797846, global = -0.0239260297933, cumulative = -10.5390881779
ExecutionTime = 2 s  ClockTime = 2 s

Time = 28

smoothSolver:  Solving for Ux, Initial residual = 0.000952070548566, Final residual = 6.70138203675e-05, No Iterations 4
smoothSolver:  Solving for Uy, Initial residual = 0.0138651496479, Final residual = 0.00108823359632, No Iterations 4
smoothSolver:  Solving for Uz, Initial residual = 0.0120243007216, Final residual = 0.000984803197063, No Iterations 4
GAMG:  Solving for p, Initial residual = 0.154284819637, Final residual = 0.00764943404774, No Iterations 4
time step continuity errors : sum local = 3.29901026785, global = -0.0264028939675, cumulative = -10.5654910719
ExecutionTime = 2.07 s  ClockTime = 2 s

Time = 29

smoothSolver:  Solving for Ux, Initial residual = 0.000924180300185, Final residual = 6.58626484095e-05, No Iterations 4
smoothSolver:  Solving for Uy, Initial residual = 0.0133913839889, Final residual = 0.00105804915802, No Iterations 4
smoothSolver:  Solving for Uz, Initial residual = 0.0119628076001, Final residual = 0.000993697625195, No Iterations 4
GAMG:  Solving for p, Initial residual = 0.122768910048, Final residual = 0.00457742329561, No Iterations 5
time step continuity errors : sum local = 2.16996850604, global = -0.00597827552884, cumulative = -10.5714693474
ExecutionTime = 2.15 s  ClockTime = 2 s

Time = 30

smoothSolver:  Solving for Ux, Initial residual = 0.00089309703894, Final residual = 6.42709848952e-05, No Iterations 4
smoothSolver:  Solving for Uy, Initial residual = 0.0135741611469, Final residual = 0.00108941203728, No Iterations 4
smoothSolver:  Solving for Uz, Initial residual = 0.0132907435854, Final residual = 0.00112848371146, No Iterations 4
GAMG:  Solving for p, Initial residual = 0.0917486135145, Final residual = 0.00420253350569, No Iterations 5
time step continuity errors : sum local = 2.25804901849, global = 0.00574509216045, cumulative = -10.5657242553
ExecutionTime = 2.22 s  ClockTime = 2 s

Time = 31

smoothSolver:  Solving for Ux, Initial residual = 0.000858811754563, Final residual = 6.25178929213e-05, No Iterations 4
smoothSolver:  Solving for Uy, Initial residual = 0.0139699660193, Final residual = 0.0011404737598, No Iterations 4
smoothSolver:  Solving for Uz, Initial residual = 0.0141401446025, Final residual = 0.00121225021836, No Iterations 4
GAMG:  Solving for p, Initial residual = 0.0749412679106, Final residual = 0.00360211740063, No Iterations 4
time step continuity errors : sum local = 2.0037710444, global = 0.00775688776595, cumulative = -10.5579673675
ExecutionTime = 2.31 s  ClockTime = 2 s

Time = 32

smoothSolver:  Solving for Ux, Initial residual = 0.000826807129175, Final residual = 6.08093517985e-05, No Iterations 4
smoothSolver:  Solving for Uy, Initial residual = 0.0127716143805, Final residual = 0.00104355735119, No Iterations 4
smoothSolver:  Solving for Uz, Initial residual = 0.0144321463694, Final residual = 0.00124557975265, No Iterations 4
GAMG:  Solving for p, Initial residual = 0.0649402160936, Final residual = 0.00231146947653, No Iterations 4
time step continuity errors : sum local = 1.26610885447, global = 0.00402916673019, cumulative = -10.5539382008
ExecutionTime = 2.38 s  ClockTime = 2 s

Time = 33

smoothSolver:  Solving for Ux, Initial residual = 0.000801236930578, Final residual = 5.93660346247e-05, No Iterations 4
smoothSolver:  Solving for Uy, Initial residual = 0.0120671960564, Final residual = 0.000991149525935, No Iterations 4
smoothSolver:  Solving for Uz, Initial residual = 0.0138789891272, Final residual = 0.00120189886764, No Iterations 4
GAMG:  Solving for p, Initial residual = 0.0615262790744, Final residual = 0.00140285170663, No Iterations 6
time step continuity errors : sum local = 0.701071496836, global = 0.000799122147248, cumulative = -10.5531390786
ExecutionTime = 2.45 s  ClockTime = 2 s

Time = 34

smoothSolver:  Solving for Ux, Initial residual = 0.000784138258994, Final residual = 5.84366789914e-05, No Iterations 4
smoothSolver:  Solving for Uy, Initial residual = 0.0120645232624, Final residual = 0.00100044395157, No Iterations 4
smoothSolver:  Solving for Uz, Initial residual = 0.0125816627547, Final residual = 0.00108018316426, No Iterations 4
GAMG:  Solving for p, Initial residual = 0.0718199452169, Final residual = 0.002160578557, No Iterations 5
time step continuity errors : sum local = 0.858054041836, global = 0.00364130238486, cumulative = -10.5494977762
ExecutionTime = 2.52 s  ClockTime = 2 s

Time = 35

smoothSolver:  Solving for Ux, Initial residual = 0.000768334791439, Final residual = 5.7547922171e-05, No Iterations 4
smoothSolver:  Solving for Uy, Initial residual = 0.0106073214538, Final residual = 0.000859809638749, No Iterations 4
smoothSolver:  Solving for Uz, Initial residual = 0.0114343706248, Final residual = 0.000971156311441, No Iterations 4
GAMG:  Solving for p, Initial residual = 0.0785038236382, Final residual = 0.00137763772443, No Iterations 6
time step continuity errors : sum local = 0.482103705786, global = 0.00481903043464, cumulative = -10.5446787458
ExecutionTime = 2.59 s  ClockTime = 2 s

Time = 36

smoothSolver:  Solving for Ux, Initial residual = 0.000755462243207, Final residual = 5.68137392071e-05, No Iterations 4
smoothSolver:  Solving for Uy, Initial residual = 0.0099142979937, Final residual = 0.000796172490961, No Iterations 4
smoothSolver:  Solving for Uz, Initial residual = 0.0102326989264, Final residual = 0.000858640527514, No Iterations 4
GAMG:  Solving for p, Initial residual = 0.0864008429556, Final residual = 0.00249839380346, No Iterations 5
time step continuity errors : sum local = 0.793095966272, global = 0.00562096157443, cumulative = -10.5390577842
ExecutionTime = 2.67 s  ClockTime = 2 s

Time = 37

smoothSolver:  Solving for Ux, Initial residual = 0.000742704865069, Final residual = 5.60151223987e-05, No Iterations 4
smoothSolver:  Solving for Uy, Initial residual = 0.00876108097385, Final residual = 0.000687402282742, No Iterations 4
smoothSolver:  Solving for Uz, Initial residual = 0.00918768404521, Final residual = 0.00076371775421, No Iterations 4
GAMG:  Solving for p, Initial residual = 0.088090189402, Final residual = 0.00222927388216, No Iterations 5
time step continuity errors : sum local = 0.665284919155, global = 0.00124088270431, cumulative = -10.5378169015
ExecutionTime = 2.74 s  ClockTime = 2 s

Time = 38

smoothSolver:  Solving for Ux, Initial residual = 0.000728482605752, Final residual = 5.52613944718e-05, No Iterations 4
smoothSolver:  Solving for Uy, Initial residual = 0.00752863902994, Final residual = 0.000582506410921, No Iterations 4
smoothSolver:  Solving for Uz, Initial residual = 0.00855438708439, Final residual = 0.000709063745276, No Iterations 4
GAMG:  Solving for p, Initial residual = 0.0850660202437, Final residual = 0.00222539745424, No Iterations 5
time step continuity errors : sum local = 0.633566825739, global = 1.13116591429e-05, cumulative = -10.5378055899
ExecutionTime = 2.81 s  ClockTime = 2 s

Time = 39

smoothSolver:  Solving for Ux, Initial residual = 0.000714793429544, Final residual = 5.45163223329e-05, No Iterations 4
smoothSolver:  Solving for Uy, Initial residual = 0.0069723364251, Final residual = 0.000546606390061, No Iterations 4
smoothSolver:  Solving for Uz, Initial residual = 0.00871499623946, Final residual = 0.000735965540061, No Iterations 4
GAMG:  Solving for p, Initial residual = 0.07666725522, Final residual = 0.00208480381727, No Iterations 5
time step continuity errors : sum local = 0.590310236893, global = -0.00169778255018, cumulative = -10.5395033724
ExecutionTime = 2.88 s  ClockTime = 2 s

Time = 40

smoothSolver:  Solving for Ux, Initial residual = 0.000700603794239, Final residual = 5.36903673631e-05, No Iterations 4
smoothSolver:  Solving for Uy, Initial residual = 0.0069475311899, Final residual = 0.000560741220268, No Iterations 4
smoothSolver:  Solving for Uz, Initial residual = 0.00919207816112, Final residual = 0.000786898615206, No Iterations 4
GAMG:  Solving for p, Initial residual = 0.0649384188926, Final residual = 0.0022985653651, No Iterations 4
time step continuity errors : sum local = 0.665881273515, global = -0.0047610300806, cumulative = -10.5442644025
ExecutionTime = 2.95 s  ClockTime = 2 s

Time = 41

smoothSolver:  Solving for Ux, Initial residual = 0.000685884471364, Final residual = 5.27767510943e-05, No Iterations 4
smoothSolver:  Solving for Uy, Initial residual = 0.00720969240693, Final residual = 0.000593136269583, No Iterations 4
smoothSolver:  Solving for Uz, Initial residual = 0.00934028227947, Final residual = 0.000802665272546, No Iterations 4
GAMG:  Solving for p, Initial residual = 0.0557143696461, Final residual = 0.00246064240238, No Iterations 4
time step continuity errors : sum local = 0.708747855467, global = -0.00529194158126, cumulative = -10.5495563441
ExecutionTime = 3.02 s  ClockTime = 3 s

Time = 42

smoothSolver:  Solving for Ux, Initial residual = 0.000672127168665, Final residual = 5.19839729768e-05, No Iterations 4
smoothSolver:  Solving for Uy, Initial residual = 0.00687137509376, Final residual = 0.000568840403461, No Iterations 4
smoothSolver:  Solving for Uz, Initial residual = 0.00923532297312, Final residual = 0.000794638257493, No Iterations 4
GAMG:  Solving for p, Initial residual = 0.0481009723764, Final residual = 0.00221842008102, No Iterations 4
time step continuity errors : sum local = 0.634297612224, global = -0.0058734859946, cumulative = -10.5554298301
ExecutionTime = 3.09 s  ClockTime = 3 s

Time = 43

smoothSolver:  Solving for Ux, Initial residual = 0.000659691132019, Final residual = 5.12646993279e-05, No Iterations 4
smoothSolver:  Solving for Uy, Initial residual = 0.00647158371722, Final residual = 0.000537826337462, No Iterations 4
smoothSolver:  Solving for Uz, Initial residual = 0.00895717735944, Final residual = 0.000768932833902, No Iterations 4
GAMG:  Solving for p, Initial residual = 0.0433973579653, Final residual = 0.00171896257371, No Iterations 5
time step continuity errors : sum local = 0.484453468085, global = -0.00329196628949, cumulative = -10.5587217964
ExecutionTime = 3.16 s  ClockTime = 3 s

Time = 44

smoothSolver:  Solving for Ux, Initial residual = 0.000648220682667, Final residual = 5.05555253842e-05, No Iterations 4
smoothSolver:  Solving for Uy, Initial residual = 0.00601645690825, Final residual = 0.000497514888484, No Iterations 4
smoothSolver:  Solving for Uz, Initial residual = 0.00856208497077, Final residual = 0.000732349353133, No Iterations 4
GAMG:  Solving for p, Initial residual = 0.0428662034641, Final residual = 0.00156342473107, No Iterations 5
time step continuity errors : sum local = 0.431749297388, global = 0.000266289333462, cumulative = -10.558455507
ExecutionTime = 3.23 s  ClockTime = 3 s

Time = 45

smoothSolver:  Solving for Ux, Initial residual = 0.000638491666935, Final residual = 4.9936766644e-05, No Iterations 4
smoothSolver:  Solving for Uy, Initial residual = 0.00527885605382, Final residual = 0.000431374620286, No Iterations 4
smoothSolver:  Solving for Uz, Initial residual = 0.00812757474468, Final residual = 0.000692033827349, No Iterations 4
GAMG:  Solving for p, Initial residual = 0.0433318470101, Final residual = 0.00117374424249, No Iterations 5
time step continuity errors : sum local = 0.31686768586, global = 0.00336973635982, cumulative = -10.5550857707
ExecutionTime = 3.3 s  ClockTime = 3 s

Time = 46

smoothSolver:  Solving for Ux, Initial residual = 0.000628534755445, Final residual = 4.93500247724e-05, No Iterations 4
smoothSolver:  Solving for Uy, Initial residual = 0.00461148875968, Final residual = 0.000369828125153, No Iterations 4
smoothSolver:  Solving for Uz, Initial residual = 0.0077252978142, Final residual = 0.000654935739392, No Iterations 4
GAMG:  Solving for p, Initial residual = 0.0443205011041, Final residual = 0.00162949075648, No Iterations 5
time step continuity errors : sum local = 0.420952072106, global = 0.00238188072328, cumulative = -10.5527038899
ExecutionTime = 3.37 s  ClockTime = 3 s

Time = 47

smoothSolver:  Solving for Ux, Initial residual = 0.000618079824211, Final residual = 4.87339235045e-05, No Iterations 4
smoothSolver:  Solving for Uy, Initial residual = 0.00392560369131, Final residual = 0.000309185545505, No Iterations 4
smoothSolver:  Solving for Uz, Initial residual = 0.00740794488287, Final residual = 0.000626841520054, No Iterations 4
GAMG:  Solving for p, Initial residual = 0.0444129756737, Final residual = 0.00101183971181, No Iterations 5
time step continuity errors : sum local = 0.246819363488, global = 0.00257623679128, cumulative = -10.5501276532
ExecutionTime = 3.45 s  ClockTime = 3 s

Time = 48

smoothSolver:  Solving for Ux, Initial residual = 0.00060767347588, Final residual = 4.80050141149e-05, No Iterations 4
smoothSolver:  Solving for Uy, Initial residual = 0.00352985893193, Final residual = 0.000277053789314, No Iterations 4
smoothSolver:  Solving for Uz, Initial residual = 0.00733709338415, Final residual = 0.000623901467192, No Iterations 4
GAMG:  Solving for p, Initial residual = 0.0427281724192, Final residual = 0.00128441534526, No Iterations 5
time step continuity errors : sum local = 0.298376969947, global = 0.00167496469504, cumulative = -10.5484526885
ExecutionTime = 3.52 s  ClockTime = 3 s

Time = 49

smoothSolver:  Solving for Ux, Initial residual = 0.000597428764845, Final residual = 4.72599058897e-05, No Iterations 4
smoothSolver:  Solving for Uy, Initial residual = 0.00336281657619, Final residual = 0.000267280092931, No Iterations 4
smoothSolver:  Solving for Uz, Initial residual = 0.00742626277557, Final residual = 0.000636953766633, No Iterations 4
GAMG:  Solving for p, Initial residual = 0.0410021268905, Final residual = 0.000720020377757, No Iterations 5
time step continuity errors : sum local = 0.156808443243, global = 0.00200528622971, cumulative = -10.5464474022
ExecutionTime = 3.6 s  ClockTime = 3 s

Time = 50

smoothSolver:  Solving for Ux, Initial residual = 0.000589086547375, Final residual = 4.67153915974e-05, No Iterations 4
smoothSolver:  Solving for Uy, Initial residual = 0.00369872637842, Final residual = 0.000306576825183, No Iterations 4
smoothSolver:  Solving for Uz, Initial residual = 0.0075279652564, Final residual = 0.000648690622143, No Iterations 4
GAMG:  Solving for p, Initial residual = 0.0368969493045, Final residual = 0.000710589387288, No Iterations 5
time step continuity errors : sum local = 0.15028722227, global = 0.00179225526951, cumulative = -10.544655147
ExecutionTime = 3.67 s  ClockTime = 3 s

Time = 51

smoothSolver:  Solving for Ux, Initial residual = 0.000580704332194, Final residual = 4.61340850447e-05, No Iterations 4
smoothSolver:  Solving for Uy, Initial residual = 0.00380560576081, Final residual = 0.000315321256736, No Iterations 4
smoothSolver:  Solving for Uz, Initial residual = 0.00753575148284, Final residual = 0.000650247431655, No Iterations 4
GAMG:  Solving for p, Initial residual = 0.0328568856665, Final residual = 0.00152307063993, No Iterations 4
time step continuity errors : sum local = 0.315236369865, global = -0.00011877431894, cumulative = -10.5447739213
ExecutionTime = 3.74 s  ClockTime = 3 s

Time = 52

smoothSolver:  Solving for Ux, Initial residual = 0.000572143213862, Final residual = 4.54957384358e-05, No Iterations 4
smoothSolver:  Solving for Uy, Initial residual = 0.00378250940042, Final residual = 0.000311827307102, No Iterations 4
smoothSolver:  Solving for Uz, Initial residual = 0.00743382010053, Final residual = 0.000641366034501, No Iterations 4
GAMG:  Solving for p, Initial residual = 0.0294635080291, Final residual = 0.00130826655473, No Iterations 4
time step continuity errors : sum local = 0.266386879624, global = 0.000975429338885, cumulative = -10.5437984919
ExecutionTime = 3.81 s  ClockTime = 3 s

Time = 53

smoothSolver:  Solving for Ux, Initial residual = 0.000563349767111, Final residual = 4.48440954742e-05, No Iterations 4
smoothSolver:  Solving for Uy, Initial residual = 0.00363045213077, Final residual = 0.000297946552608, No Iterations 4
smoothSolver:  Solving for Uz, Initial residual = 0.00725237451824, Final residual = 0.000625143720623, No Iterations 4
GAMG:  Solving for p, Initial residual = 0.0270377060765, Final residual = 0.00103042226389, No Iterations 5
time step continuity errors : sum local = 0.207606154602, global = 0.000348464934691, cumulative = -10.543450027
ExecutionTime = 3.88 s  ClockTime = 3 s

Time = 54

smoothSolver:  Solving for Ux, Initial residual = 0.000553122564957, Final residual = 4.41444826635e-05, No Iterations 4
smoothSolver:  Solving for Uy, Initial residual = 0.00335407213201, Final residual = 0.000273372646327, No Iterations 4
smoothSolver:  Solving for Uz, Initial residual = 0.00701491461671, Final residual = 0.000604012701435, No Iterations 4
GAMG:  Solving for p, Initial residual = 0.0266703979848, Final residual = 0.00098330095244, No Iterations 5
time step continuity errors : sum local = 0.194977351289, global = 0.000264541892543, cumulative = -10.5431854851
ExecutionTime = 3.96 s  ClockTime = 4 s

Time = 55

smoothSolver:  Solving for Ux, Initial residual = 0.000545064963816, Final residual = 4.36130634459e-05, No Iterations 4
smoothSolver:  Solving for Uy, Initial residual = 0.00304258185111, Final residual = 0.000245353505282, No Iterations 4
smoothSolver:  Solving for Uz, Initial residual = 0.00677882339857, Final residual = 0.000583427536984, No Iterations 4
GAMG:  Solving for p, Initial residual = 0.0267850059436, Final residual = 0.00123476244039, No Iterations 5
time step continuity errors : sum local = 0.240695147744, global = 0.000423324568806, cumulative = -10.5427621605
ExecutionTime = 4.03 s  ClockTime = 4 s

Time = 56

smoothSolver:  Solving for Ux, Initial residual = 0.000537674197256, Final residual = 4.30642340543e-05, No Iterations 4
smoothSolver:  Solving for Uy, Initial residual = 0.00274602827634, Final residual = 0.000220418785442, No Iterations 4
smoothSolver:  Solving for Uz, Initial residual = 0.00657472784481, Final residual = 0.000565789226191, No Iterations 4
GAMG:  Solving for p, Initial residual = 0.0265690003063, Final residual = 0.000542841429143, No Iterations 6
time step continuity errors : sum local = 0.103836659553, global = 0.000540724007064, cumulative = -10.5422214365
ExecutionTime = 4.12 s  ClockTime = 4 s

Time = 57

smoothSolver:  Solving for Ux, Initial residual = 0.000529611114487, Final residual = 4.24414656928e-05, No Iterations 4
smoothSolver:  Solving for Uy, Initial residual = 0.00251924136191, Final residual = 0.000202011763649, No Iterations 4
smoothSolver:  Solving for Uz, Initial residual = 0.00646212785301, Final residual = 0.000556515814032, No Iterations 4
GAMG:  Solving for p, Initial residual = 0.025552291438, Final residual = 0.000732853731645, No Iterations 5
time step continuity errors : sum local = 0.137291404899, global = 0.000886031766068, cumulative = -10.5413354048
ExecutionTime = 4.2 s  ClockTime = 4 s

Time = 58

smoothSolver:  Solving for Ux, Initial residual = 0.000521362044622, Final residual = 4.18378139498e-05, No Iterations 4
smoothSolver:  Solving for Uy, Initial residual = 0.00248076693558, Final residual = 0.000203127385221, No Iterations 4
smoothSolver:  Solving for Uz, Initial residual = 0.00650341467004, Final residual = 0.000562558096871, No Iterations 4
GAMG:  Solving for p, Initial residual = 0.0238566012391, Final residual = 0.000457883509858, No Iterations 5
time step continuity errors : sum local = 0.0838413327174, global = 0.000721743774453, cumulative = -10.540613661
ExecutionTime = 4.29 s  ClockTime = 4 s

Time = 59

smoothSolver:  Solving for Ux, Initial residual = 0.000513183218117, Final residual = 4.1238623961e-05, No Iterations 4
smoothSolver:  Solving for Uy, Initial residual = 0.0025088877624, Final residual = 0.000208866538519, No Iterations 4
smoothSolver:  Solving for Uz, Initial residual = 0.00660507693402, Final residual = 0.000572380287853, No Iterations 4
GAMG:  Solving for p, Initial residual = 0.0214358218724, Final residual = 0.000567880696497, No Iterations 5
time step continuity errors : sum local = 0.101998305516, global = 0.00112363116083, cumulative = -10.5394900298
ExecutionTime = 4.38 s  ClockTime = 4 s

Time = 60

smoothSolver:  Solving for Ux, Initial residual = 0.000505145299686, Final residual = 4.06135549939e-05, No Iterations 4
smoothSolver:  Solving for Uy, Initial residual = 0.00246474833699, Final residual = 0.000206840935626, No Iterations 4
smoothSolver:  Solving for Uz, Initial residual = 0.00665182240511, Final residual = 0.000576932827549, No Iterations 4
GAMG:  Solving for p, Initial residual = 0.0192786706776, Final residual = 0.00045027036926, No Iterations 5
time step continuity errors : sum local = 0.0786592770607, global = 0.000877378737153, cumulative = -10.5386126511
ExecutionTime = 4.47 s  ClockTime = 4 s

Time = 61

smoothSolver:  Solving for Ux, Initial residual = 0.000497278509438, Final residual = 3.99877927269e-05, No Iterations 4
smoothSolver:  Solving for Uy, Initial residual = 0.00240666067681, Final residual = 0.000203284567089, No Iterations 4
smoothSolver:  Solving for Uz, Initial residual = 0.00663390725875, Final residual = 0.000575324791824, No Iterations 4
GAMG:  Solving for p, Initial residual = 0.0171186359476, Final residual = 0.000354820075143, No Iterations 5
time step continuity errors : sum local = 0.0608366186119, global = 0.000727475928564, cumulative = -10.5378851752
ExecutionTime = 4.56 s  ClockTime = 4 s

Time = 62

smoothSolver:  Solving for Ux, Initial residual = 0.000489994371805, Final residual = 3.94041621787e-05, No Iterations 4
smoothSolver:  Solving for Uy, Initial residual = 0.00227442563374, Final residual = 0.000191686353027, No Iterations 4
smoothSolver:  Solving for Uz, Initial residual = 0.00656208066266, Final residual = 0.00056903652268, No Iterations 4
GAMG:  Solving for p, Initial residual = 0.0156770105034, Final residual = 0.000500688427873, No Iterations 5
time step continuity errors : sum local = 0.0844364106844, global = 0.000324978647988, cumulative = -10.5375601965
ExecutionTime = 4.66 s  ClockTime = 4 s

Time = 63

smoothSolver:  Solving for Ux, Initial residual = 0.00048332346932, Final residual = 3.88642131899e-05, No Iterations 4
smoothSolver:  Solving for Uy, Initial residual = 0.00211084267723, Final residual = 0.000176966189712, No Iterations 4
smoothSolver:  Solving for Uz, Initial residual = 0.00645621167351, Final residual = 0.000559732782593, No Iterations 4
GAMG:  Solving for p, Initial residual = 0.0153370859547, Final residual = 0.000527700088291, No Iterations 5
time step continuity errors : sum local = 0.0870816932158, global = 0.000282482079742, cumulative = -10.5372777144
ExecutionTime = 4.76 s  ClockTime = 4 s

Time = 64

smoothSolver:  Solving for Ux, Initial residual = 0.000476174595537, Final residual = 3.83001616883e-05, No Iterations 4
smoothSolver:  Solving for Uy, Initial residual = 0.00195597914263, Final residual = 0.000162870808438, No Iterations 4
smoothSolver:  Solving for Uz, Initial residual = 0.00634765257916, Final residual = 0.000550268437505, No Iterations 4
GAMG:  Solving for p, Initial residual = 0.0151236871276, Final residual = 0.000351284279262, No Iterations 5
time step continuity errors : sum local = 0.0571647438924, global = 0.000312300464177, cumulative = -10.536965414
ExecutionTime = 4.84 s  ClockTime = 4 s

Time = 65

smoothSolver:  Solving for Ux, Initial residual = 0.000465892802071, Final residual = 3.75722522632e-05, No Iterations 4
smoothSolver:  Solving for Uy, Initial residual = 0.00182015496795, Final residual = 0.000151246011495, No Iterations 4
smoothSolver:  Solving for Uz, Initial residual = 0.00625379180763, Final residual = 0.000541831176367, No Iterations 4
GAMG:  Solving for p, Initial residual = 0.0148623416185, Final residual = 0.000518403200892, No Iterations 5
time step continuity errors : sum local = 0.0830723078414, global = 0.000406857637808, cumulative = -10.5365585563
ExecutionTime = 4.93 s  ClockTime = 4 s

Time = 66

smoothSolver:  Solving for Ux, Initial residual = 0.000456140190432, Final residual = 3.67955936123e-05, No Iterations 4
smoothSolver:  Solving for Uy, Initial residual = 0.00172936590002, Final residual = 0.000143594241935, No Iterations 4
smoothSolver:  Solving for Uz, Initial residual = 0.00618306384673, Final residual = 0.0005356987363, No Iterations 4
GAMG:  Solving for p, Initial residual = 0.0146614748893, Final residual = 0.000392277357303, No Iterations 5
time step continuity errors : sum local = 0.061364523218, global = 0.000283797076685, cumulative = -10.5362747593
ExecutionTime = 5.01 s  ClockTime = 5 s

Time = 67

smoothSolver:  Solving for Ux, Initial residual = 0.000446858079245, Final residual = 3.59841966026e-05, No Iterations 4
smoothSolver:  Solving for Uy, Initial residual = 0.00170908310657, Final residual = 0.000142700134178, No Iterations 4
smoothSolver:  Solving for Uz, Initial residual = 0.00617146888965, Final residual = 0.000536106024279, No Iterations 4
GAMG:  Solving for p, Initial residual = 0.0139054671766, Final residual = 0.000375432546125, No Iterations 5
time step continuity errors : sum local = 0.0576365254925, global = 0.000234463262889, cumulative = -10.536040296
ExecutionTime = 5.09 s  ClockTime = 5 s

Time = 68

smoothSolver:  Solving for Ux, Initial residual = 0.000437502412755, Final residual = 3.51930254019e-05, No Iterations 4
smoothSolver:  Solving for Uy, Initial residual = 0.00171562799841, Final residual = 0.000144205965949, No Iterations 4
smoothSolver:  Solving for Uz, Initial residual = 0.00620041968806, Final residual = 0.000539867989554, No Iterations 4
GAMG:  Solving for p, Initial residual = 0.0128071293921, Final residual = 0.000340439403694, No Iterations 5
time step continuity errors : sum local = 0.0513864964104, global = 0.000180601496002, cumulative = -10.5358596945
ExecutionTime = 5.16 s  ClockTime = 5 s

Time = 69

smoothSolver:  Solving for Ux, Initial residual = 0.000431058073087, Final residual = 3.47355962445e-05, No Iterations 4
smoothSolver:  Solving for Uy, Initial residual = 0.0017410070433, Final residual = 0.000147199192302, No Iterations 4
smoothSolver:  Solving for Uz, Initial residual = 0.00623778043789, Final residual = 0.000544026002538, No Iterations 4
GAMG:  Solving for p, Initial residual = 0.0116017791567, Final residual = 0.000217710841842, No Iterations 5
time step continuity errors : sum local = 0.0323506014756, global = 0.000154509975868, cumulative = -10.5357051845
ExecutionTime = 5.24 s  ClockTime = 5 s

Time = 70

smoothSolver:  Solving for Ux, Initial residual = 0.000425331679882, Final residual = 3.42710194863e-05, No Iterations 4
smoothSolver:  Solving for Uy, Initial residual = 0.00175688659187, Final residual = 0.000148567920267, No Iterations 4
smoothSolver:  Solving for Uz, Initial residual = 0.00625225355453, Final residual = 0.000545982796922, No Iterations 4
GAMG:  Solving for p, Initial residual = 0.0103331904809, Final residual = 0.000209540260615, No Iterations 5
time step continuity errors : sum local = 0.0306621959648, global = 0.000582735969836, cumulative = -10.5351224486
ExecutionTime = 5.31 s  ClockTime = 5 s

Time = 71

smoothSolver:  Solving for Ux, Initial residual = 0.000419903449006, Final residual = 3.38002567716e-05, No Iterations 4
smoothSolver:  Solving for Uy, Initial residual = 0.00174329396762, Final residual = 0.000147403640122, No Iterations 4
smoothSolver:  Solving for Uz, Initial residual = 0.00625014568506, Final residual = 0.000546376782672, No Iterations 4
GAMG:  Solving for p, Initial residual = 0.0092725338602, Final residual = 0.000224713107908, No Iterations 5
time step continuity errors : sum local = 0.0325251767023, global = 0.000673524023135, cumulative = -10.5344489245
ExecutionTime = 5.38 s  ClockTime = 5 s

Time = 72

smoothSolver:  Solving for Ux, Initial residual = 0.000413720808745, Final residual = 3.32638663756e-05, No Iterations 4
smoothSolver:  Solving for Uy, Initial residual = 0.0016909856348, Final residual = 0.000142783820486, No Iterations 4
smoothSolver:  Solving for Uz, Initial residual = 0.00622846547155, Final residual = 0.000544985423018, No Iterations 4
GAMG:  Solving for p, Initial residual = 0.00872930823345, Final residual = 0.000280868824295, No Iterations 5
time step continuity errors : sum local = 0.0401660644955, global = 0.000261986707553, cumulative = -10.5341869378
ExecutionTime = 5.45 s  ClockTime = 5 s

Time = 73

smoothSolver:  Solving for Ux, Initial residual = 0.000407759108492, Final residual = 3.27887816889e-05, No Iterations 4
smoothSolver:  Solving for Uy, Initial residual = 0.00161572358792, Final residual = 0.000136299983149, No Iterations 4
smoothSolver:  Solving for Uz, Initial residual = 0.00620064158088, Final residual = 0.000542995111056, No Iterations 4
GAMG:  Solving for p, Initial residual = 0.00865406121455, Final residual = 0.000218003744797, No Iterations 5
time step continuity errors : sum local = 0.0306532231971, global = 0.000150806569551, cumulative = -10.5340361313
ExecutionTime = 5.53 s  ClockTime = 5 s

Time = 74

smoothSolver:  Solving for Ux, Initial residual = 0.000403443772131, Final residual = 3.241810327e-05, No Iterations 4
smoothSolver:  Solving for Uy, Initial residual = 0.00156956056713, Final residual = 0.000132158365172, No Iterations 4
smoothSolver:  Solving for Uz, Initial residual = 0.0061820244777, Final residual = 0.000542037107219, No Iterations 4
GAMG:  Solving for p, Initial residual = 0.00844232241502, Final residual = 0.000369894230021, No Iterations 5
time step continuity errors : sum local = 0.0513779914356, global = 0.000351934443267, cumulative = -10.5336841968
ExecutionTime = 5.6 s  ClockTime = 5 s

Time = 75

smoothSolver:  Solving for Ux, Initial residual = 0.000399074352924, Final residual = 3.20649992175e-05, No Iterations 4
smoothSolver:  Solving for Uy, Initial residual = 0.00151087960207, Final residual = 0.000127243461577, No Iterations 4
smoothSolver:  Solving for Uz, Initial residual = 0.00617831791829, Final residual = 0.000542163701594, No Iterations 4
GAMG:  Solving for p, Initial residual = 0.0083749389235, Final residual = 0.000234444561943, No Iterations 5
time step continuity errors : sum local = 0.0318988108026, global = 0.000170712384447, cumulative = -10.5335134844
ExecutionTime = 5.67 s  ClockTime = 5 s

Time = 76

smoothSolver:  Solving for Ux, Initial residual = 0.000394964214269, Final residual = 3.17252625219e-05, No Iterations 4
smoothSolver:  Solving for Uy, Initial residual = 0.00149885770976, Final residual = 0.0001259002731, No Iterations 4
smoothSolver:  Solving for Uz, Initial residual = 0.00619527468275, Final residual = 0.000544293308932, No Iterations 4
GAMG:  Solving for p, Initial residual = 0.00797137448714, Final residual = 0.000217275580983, No Iterations 5
time step continuity errors : sum local = 0.0291052072567, global = 0.000147157354073, cumulative = -10.5333663271
ExecutionTime = 5.74 s  ClockTime = 5 s

Time = 77

smoothSolver:  Solving for Ux, Initial residual = 0.000391457729277, Final residual = 3.14045848105e-05, No Iterations 4
smoothSolver:  Solving for Uy, Initial residual = 0.00147722936163, Final residual = 0.000125043402092, No Iterations 4
smoothSolver:  Solving for Uz, Initial residual = 0.00622186148133, Final residual = 0.000547166373625, No Iterations 4
GAMG:  Solving for p, Initial residual = 0.00745941614484, Final residual = 0.00022912802532, No Iterations 5
time step continuity errors : sum local = 0.0302321335871, global = 0.000120987486603, cumulative = -10.5332453396
ExecutionTime = 5.81 s  ClockTime = 5 s

Time = 78

smoothSolver:  Solving for Ux, Initial residual = 0.000387477744355, Final residual = 3.10740449656e-05, No Iterations 4
smoothSolver:  Solving for Uy, Initial residual = 0.00147176932445, Final residual = 0.000125120185831, No Iterations 4
smoothSolver:  Solving for Uz, Initial residual = 0.00624836201978, Final residual = 0.000549945213237, No Iterations 4
GAMG:  Solving for p, Initial residual = 0.00683844735685, Final residual = 0.000225226736872, No Iterations 4
time step continuity errors : sum local = 0.0292738401021, global = 0.000138767374502, cumulative = -10.5331065722
ExecutionTime = 5.88 s  ClockTime = 5 s

Time = 79

smoothSolver:  Solving for Ux, Initial residual = 0.000383890368274, Final residual = 3.07588383297e-05, No Iterations 4
smoothSolver:  Solving for Uy, Initial residual = 0.00145828005647, Final residual = 0.000124272368695, No Iterations 4
smoothSolver:  Solving for Uz, Initial residual = 0.00626679931296, Final residual = 0.000552348213169, No Iterations 4
GAMG:  Solving for p, Initial residual = 0.00616916352252, Final residual = 0.000218126610872, No Iterations 4
time step continuity errors : sum local = 0.028014705311, global = 0.000117744376383, cumulative = -10.5329888278
ExecutionTime = 5.95 s  ClockTime = 5 s

Time = 80

smoothSolver:  Solving for Ux, Initial residual = 0.000379610648502, Final residual = 3.04106826207e-05, No Iterations 4
smoothSolver:  Solving for Uy, Initial residual = 0.00143146826757, Final residual = 0.000121900461422, No Iterations 4
smoothSolver:  Solving for Uz, Initial residual = 0.00627844451338, Final residual = 0.000553973982192, No Iterations 4
GAMG:  Solving for p, Initial residual = 0.00560653570604, Final residual = 0.00022198090498, No Iterations 5
time step continuity errors : sum local = 0.0281214339668, global = 0.000166776031989, cumulative = -10.5328220518
ExecutionTime = 6.02 s  ClockTime = 6 s

Time = 81

smoothSolver:  Solving for Ux, Initial residual = 0.000374953896605, Final residual = 3.00386517287e-05, No Iterations 4
smoothSolver:  Solving for Uy, Initial residual = 0.00140053951461, Final residual = 0.000119270135161, No Iterations 4
smoothSolver:  Solving for Uz, Initial residual = 0.00628146505674, Final residual = 0.00055480603149, No Iterations 4
GAMG:  Solving for p, Initial residual = 0.00527093293816, Final residual = 0.000218652536414, No Iterations 5
time step continuity errors : sum local = 0.0272449639507, global = 0.000161713751322, cumulative = -10.5326603381
ExecutionTime = 6.09 s  ClockTime = 6 s

Time = 82

smoothSolver:  Solving for Ux, Initial residual = 0.000370517023676, Final residual = 2.96366222206e-05, No Iterations 4
smoothSolver:  Solving for Uy, Initial residual = 0.00136866528999, Final residual = 0.000116572304411, No Iterations 4
smoothSolver:  Solving for Uz, Initial residual = 0.00623872769207, Final residual = 0.000551552252896, No Iterations 4
GAMG:  Solving for p, Initial residual = 0.00505029664583, Final residual = 0.00018474420823, No Iterations 5
time step continuity errors : sum local = 0.0227170285335, global = 0.000160288809097, cumulative = -10.5325000492
ExecutionTime = 6.16 s  ClockTime = 6 s

Time = 83

smoothSolver:  Solving for Ux, Initial residual = 0.00036571234853, Final residual = 2.92481672154e-05, No Iterations 4
smoothSolver:  Solving for Uy, Initial residual = 0.00133492852142, Final residual = 0.000113657054697, No Iterations 4
smoothSolver:  Solving for Uz, Initial residual = 0.00613073293333, Final residual = 0.000542702207475, No Iterations 4
GAMG:  Solving for p, Initial residual = 0.00500338618089, Final residual = 0.000209756819045, No Iterations 5
time step continuity errors : sum local = 0.0254047041055, global = 0.000146057750706, cumulative = -10.5323539915
ExecutionTime = 6.23 s  ClockTime = 6 s

Time = 84

smoothSolver:  Solving for Ux, Initial residual = 0.00035982471064, Final residual = 2.88195320232e-05, No Iterations 4
smoothSolver:  Solving for Uy, Initial residual = 0.0013165649204, Final residual = 0.000111826978305, No Iterations 4
smoothSolver:  Solving for Uz, Initial residual = 0.00602272620877, Final residual = 0.000533609509316, No Iterations 4
GAMG:  Solving for p, Initial residual = 0.00486535926666, Final residual = 0.000189170263516, No Iterations 5
time step continuity errors : sum local = 0.0226074131777, global = 0.000127942126433, cumulative = -10.5322260494
ExecutionTime = 6.3 s  ClockTime = 6 s

Time = 85

smoothSolver:  Solving for Ux, Initial residual = 0.00035411554798, Final residual = 2.84081192378e-05, No Iterations 4
smoothSolver:  Solving for Uy, Initial residual = 0.00130722575272, Final residual = 0.000111008341286, No Iterations 4
smoothSolver:  Solving for Uz, Initial residual = 0.00591770180396, Final residual = 0.00052481334126, No Iterations 4
GAMG:  Solving for p, Initial residual = 0.00475635914993, Final residual = 0.000207748855028, No Iterations 4
time step continuity errors : sum local = 0.0244645421441, global = 0.000208802283188, cumulative = -10.5320172471
ExecutionTime = 6.37 s  ClockTime = 6 s

Time = 86

smoothSolver:  Solving for Ux, Initial residual = 0.000348889280909, Final residual = 2.79936569177e-05, No Iterations 4
smoothSolver:  Solving for Uy, Initial residual = 0.00131218020317, Final residual = 0.000111751916089, No Iterations 4
smoothSolver:  Solving for Uz, Initial residual = 0.00581612715078, Final residual = 0.000516367622008, No Iterations 4
GAMG:  Solving for p, Initial residual = 0.00448432953882, Final residual = 0.000202796904, No Iterations 4
time step continuity errors : sum local = 0.0236623658457, global = 0.000164889529728, cumulative = -10.5318523576
ExecutionTime = 6.45 s  ClockTime = 6 s

Time = 87

smoothSolver:  Solving for Ux, Initial residual = 0.000343661502355, Final residual = 2.75616150434e-05, No Iterations 4
smoothSolver:  Solving for Uy, Initial residual = 0.00129394818243, Final residual = 0.000110052158131, No Iterations 4
smoothSolver:  Solving for Uz, Initial residual = 0.0057148643909, Final residual = 0.000507919591891, No Iterations 4
GAMG:  Solving for p, Initial residual = 0.00421075518455, Final residual = 0.000209330654401, No Iterations 4
time step continuity errors : sum local = 0.0240614677079, global = 8.22783646343e-05, cumulative = -10.5317700792
ExecutionTime = 6.52 s  ClockTime = 6 s

Time = 88

smoothSolver:  Solving for Ux, Initial residual = 0.000338339535769, Final residual = 2.71031603988e-05, No Iterations 4
smoothSolver:  Solving for Uy, Initial residual = 0.00128701540295, Final residual = 0.000109962868448, No Iterations 4
smoothSolver:  Solving for Uz, Initial residual = 0.00561018564421, Final residual = 0.000499171490092, No Iterations 4
GAMG:  Solving for p, Initial residual = 0.00388889983036, Final residual = 0.000187269517657, No Iterations 4
time step continuity errors : sum local = 0.0211907226017, global = 7.3635184637e-05, cumulative = -10.531696444
ExecutionTime = 6.59 s  ClockTime = 6 s

Time = 89

smoothSolver:  Solving for Ux, Initial residual = 0.000332563320252, Final residual = 2.66272830818e-05, No Iterations 4
smoothSolver:  Solving for Uy, Initial residual = 0.00128129362577, Final residual = 0.000109677042461, No Iterations 4
smoothSolver:  Solving for Uz, Initial residual = 0.00551147751165, Final residual = 0.000490760719495, No Iterations 4
GAMG:  Solving for p, Initial residual = 0.00352377900703, Final residual = 0.000173031892911, No Iterations 4
time step continuity errors : sum local = 0.0193286401079, global = 7.98257536288e-05, cumulative = -10.5316166183
ExecutionTime = 6.66 s  ClockTime = 6 s

Time = 90

smoothSolver:  Solving for Ux, Initial residual = 0.000327608009384, Final residual = 2.61604351807e-05, No Iterations 4
smoothSolver:  Solving for Uy, Initial residual = 0.00127240471296, Final residual = 0.00010910146051, No Iterations 4
smoothSolver:  Solving for Uz, Initial residual = 0.00540784318335, Final residual = 0.000482065411832, No Iterations 4
GAMG:  Solving for p, Initial residual = 0.00320377715356, Final residual = 8.96218626649e-05, No Iterations 6
time step continuity errors : sum local = 0.00990564312041, global = -8.93271597687e-06, cumulative = -10.531625551
ExecutionTime = 6.74 s  ClockTime = 6 s

Time = 91

smoothSolver:  Solving for Ux, Initial residual = 0.000322330908612, Final residual = 2.5742247587e-05, No Iterations 4
smoothSolver:  Solving for Uy, Initial residual = 0.00125513243078, Final residual = 0.000107647781719, No Iterations 4
smoothSolver:  Solving for Uz, Initial residual = 0.00530677223362, Final residual = 0.000473424016887, No Iterations 4
GAMG:  Solving for p, Initial residual = 0.00307784067648, Final residual = 0.000133530225645, No Iterations 6
time step continuity errors : sum local = 0.0145659843403, global = -1.62360620341e-05, cumulative = -10.531641787
ExecutionTime = 6.81 s  ClockTime = 6 s

Time = 92

smoothSolver:  Solving for Ux, Initial residual = 0.00031809664054, Final residual = 2.54463817414e-05, No Iterations 4
smoothSolver:  Solving for Uy, Initial residual = 0.00124191408103, Final residual = 0.00010662469391, No Iterations 4
smoothSolver:  Solving for Uz, Initial residual = 0.00521328770881, Final residual = 0.000465329865854, No Iterations 4
GAMG:  Solving for p, Initial residual = 0.00304814465978, Final residual = 0.000149252514138, No Iterations 4
time step continuity errors : sum local = 0.0160967758012, global = 0.000109055205798, cumulative = -10.5315327318
ExecutionTime = 6.88 s  ClockTime = 6 s

Time = 93

smoothSolver:  Solving for Ux, Initial residual = 0.00031531392911, Final residual = 2.51495277021e-05, No Iterations 4
smoothSolver:  Solving for Uy, Initial residual = 0.00123351226623, Final residual = 0.000105889273589, No Iterations 4
smoothSolver:  Solving for Uz, Initial residual = 0.00512250265588, Final residual = 0.000457460070315, No Iterations 4
GAMG:  Solving for p, Initial residual = 0.00294468000679, Final residual = 9.66505291464e-05, No Iterations 6
time step continuity errors : sum local = 0.0103421754339, global = 5.22731137702e-05, cumulative = -10.5314804587
ExecutionTime = 6.95 s  ClockTime = 6 s

Time = 94

smoothSolver:  Solving for Ux, Initial residual = 0.00031147183157, Final residual = 2.48157092773e-05, No Iterations 4
smoothSolver:  Solving for Uy, Initial residual = 0.00120947197652, Final residual = 0.000104016963336, No Iterations 4
smoothSolver:  Solving for Uz, Initial residual = 0.00503095058293, Final residual = 0.000449313437795, No Iterations 4
GAMG:  Solving for p, Initial residual = 0.00293644132828, Final residual = 7.71886319544e-05, No Iterations 6
time step continuity errors : sum local = 0.00812705891245, global = 3.80729773343e-05, cumulative = -10.5314423857
ExecutionTime = 7.02 s  ClockTime = 7 s

Time = 95

smoothSolver:  Solving for Ux, Initial residual = 0.000308130427445, Final residual = 2.45148309219e-05, No Iterations 4
smoothSolver:  Solving for Uy, Initial residual = 0.0011985555315, Final residual = 0.000102977112441, No Iterations 4
smoothSolver:  Solving for Uz, Initial residual = 0.00493997684735, Final residual = 0.000441341035214, No Iterations 4
GAMG:  Solving for p, Initial residual = 0.00281075780585, Final residual = 0.000132379690226, No Iterations 4
time step continuity errors : sum local = 0.0137296830024, global = 9.5012229524e-05, cumulative = -10.5313473735
ExecutionTime = 7.09 s  ClockTime = 7 s

Time = 96

smoothSolver:  Solving for Ux, Initial residual = 0.000305032504331, Final residual = 2.42150704433e-05, No Iterations 4
smoothSolver:  Solving for Uy, Initial residual = 0.00119754108024, Final residual = 0.000103134912679, No Iterations 4
smoothSolver:  Solving for Uz, Initial residual = 0.00484921153633, Final residual = 0.000433386891102, No Iterations 4
GAMG:  Solving for p, Initial residual = 0.00258976755372, Final residual = 8.81600009378e-05, No Iterations 6
time step continuity errors : sum local = 0.00904300916193, global = 2.76889632325e-06, cumulative = -10.5313446046
ExecutionTime = 7.17 s  ClockTime = 7 s

Time = 97

smoothSolver:  Solving for Ux, Initial residual = 0.000301721638534, Final residual = 2.39082612571e-05, No Iterations 4
smoothSolver:  Solving for Uy, Initial residual = 0.00118470540534, Final residual = 0.00010197178111, No Iterations 4
smoothSolver:  Solving for Uz, Initial residual = 0.00475959712506, Final residual = 0.000425549084707, No Iterations 4
GAMG:  Solving for p, Initial residual = 0.00243837284969, Final residual = 6.25172924435e-05, No Iterations 6
time step continuity errors : sum local = 0.00631642761939, global = -5.48076905043e-06, cumulative = -10.5313500854
ExecutionTime = 7.24 s  ClockTime = 7 s

Time = 98

smoothSolver:  Solving for Ux, Initial residual = 0.000298121255142, Final residual = 2.36129193161e-05, No Iterations 4
smoothSolver:  Solving for Uy, Initial residual = 0.00117774322443, Final residual = 0.000101519957255, No Iterations 4
smoothSolver:  Solving for Uz, Initial residual = 0.00467008508606, Final residual = 0.000417709358928, No Iterations 4
GAMG:  Solving for p, Initial residual = 0.00225476142717, Final residual = 4.59696632225e-05, No Iterations 6
time step continuity errors : sum local = 0.00458559309228, global = 3.47753703739e-05, cumulative = -10.53131531
ExecutionTime = 7.31 s  ClockTime = 7 s

Time = 99

smoothSolver:  Solving for Ux, Initial residual = 0.000296529419447, Final residual = 2.32852908778e-05, No Iterations 4
smoothSolver:  Solving for Uy, Initial residual = 0.00117181011424, Final residual = 0.000101057233519, No Iterations 4
smoothSolver:  Solving for Uz, Initial residual = 0.00458023751906, Final residual = 0.000409945950485, No Iterations 4
GAMG:  Solving for p, Initial residual = 0.00212041368277, Final residual = 4.50118049341e-05, No Iterations 6
time step continuity errors : sum local = 0.00443936963745, global = 3.67306385026e-05, cumulative = -10.5312785794
ExecutionTime = 7.39 s  ClockTime = 7 s

Time = 100

smoothSolver:  Solving for Ux, Initial residual = 0.000294065675881, Final residual = 2.29147958448e-05, No Iterations 4
smoothSolver:  Solving for Uy, Initial residual = 0.00116598868566, Final residual = 0.000100463271467, No Iterations 4
smoothSolver:  Solving for Uz, Initial residual = 0.00449634528591, Final residual = 0.000402319175738, No Iterations 4
GAMG:  Solving for p, Initial residual = 0.00204759040183, Final residual = 5.54523416727e-05, No Iterations 6
time step continuity errors : sum local = 0.00540802615866, global = -8.25229977705e-07, cumulative = -10.5312794046
ExecutionTime = 7.46 s  ClockTime = 7 s

Time = 101

smoothSolver:  Solving for Ux, Initial residual = 0.000289532106996, Final residual = 2.25655122304e-05, No Iterations 4
smoothSolver:  Solving for Uy, Initial residual = 0.00115353196213, Final residual = 9.94579566088e-05, No Iterations 4
smoothSolver:  Solving for Uz, Initial residual = 0.00441499182228, Final residual = 0.000394903824064, No Iterations 4
GAMG:  Solving for p, Initial residual = 0.00202665305774, Final residual = 6.05594838872e-05, No Iterations 6
time step continuity errors : sum local = 0.0058359141585, global = 3.32651872425e-05, cumulative = -10.5312461394
ExecutionTime = 7.57 s  ClockTime = 7 s

Time = 102

smoothSolver:  Solving for Ux, Initial residual = 0.000284879107431, Final residual = 2.22473388815e-05, No Iterations 4
smoothSolver:  Solving for Uy, Initial residual = 0.0011444531615, Final residual = 9.85929474093e-05, No Iterations 4
smoothSolver:  Solving for Uz, Initial residual = 0.00433262028967, Final residual = 0.000387445757674, No Iterations 4
GAMG:  Solving for p, Initial residual = 0.00197864065163, Final residual = 6.24734908809e-05, No Iterations 6
time step continuity errors : sum local = 0.00594826493396, global = 4.66635678887e-05, cumulative = -10.5311994758
ExecutionTime = 7.64 s  ClockTime = 7 s

Time = 103

smoothSolver:  Solving for Ux, Initial residual = 0.00028168409492, Final residual = 2.19549379065e-05, No Iterations 4
smoothSolver:  Solving for Uy, Initial residual = 0.00113661571283, Final residual = 9.79719390342e-05, No Iterations 4
smoothSolver:  Solving for Uz, Initial residual = 0.00424999098646, Final residual = 0.000380092471573, No Iterations 4
GAMG:  Solving for p, Initial residual = 0.00197515309507, Final residual = 5.84880954696e-05, No Iterations 6
time step continuity errors : sum local = 0.00549716211663, global = 3.23587884972e-05, cumulative = -10.5311671171
ExecutionTime = 7.71 s  ClockTime = 7 s

Time = 104

smoothSolver:  Solving for Ux, Initial residual = 0.000280812445696, Final residual = 2.16220742504e-05, No Iterations 4
smoothSolver:  Solving for Uy, Initial residual = 0.00113170848015, Final residual = 9.74815339617e-05, No Iterations 4
smoothSolver:  Solving for Uz, Initial residual = 0.00417215145082, Final residual = 0.000372863332739, No Iterations 4
GAMG:  Solving for p, Initial residual = 0.00193093922759, Final residual = 5.89916283152e-05, No Iterations 6
time step continuity errors : sum local = 0.00547204677338, global = 2.67481664285e-05, cumulative = -10.5311403689
ExecutionTime = 7.79 s  ClockTime = 7 s

Time = 105

smoothSolver:  Solving for Ux, Initial residual = 0.00027609903139, Final residual = 2.12881631354e-05, No Iterations 4
smoothSolver:  Solving for Uy, Initial residual = 0.00112610047444, Final residual = 9.69364790451e-05, No Iterations 4
smoothSolver:  Solving for Uz, Initial residual = 0.00409459337184, Final residual = 0.000365955241622, No Iterations 4
GAMG:  Solving for p, Initial residual = 0.00185081590891, Final residual = 6.90608585349e-05, No Iterations 6
time step continuity errors : sum local = 0.00632332145231, global = 2.8219860802e-06, cumulative = -10.5311375469
ExecutionTime = 7.86 s  ClockTime = 7 s

Time = 106

smoothSolver:  Solving for Ux, Initial residual = 0.000274261117847, Final residual = 2.10104275702e-05, No Iterations 4
smoothSolver:  Solving for Uy, Initial residual = 0.001117947905, Final residual = 9.61626057769e-05, No Iterations 4
smoothSolver:  Solving for Uz, Initial residual = 0.00401889505326, Final residual = 0.000359083413971, No Iterations 4
GAMG:  Solving for p, Initial residual = 0.00178386191853, Final residual = 3.57817758526e-05, No Iterations 6
time step continuity errors : sum local = 0.00323365456165, global = 3.1799258225e-05, cumulative = -10.5311057476
ExecutionTime = 7.98 s  ClockTime = 8 s

Time = 107

smoothSolver:  Solving for Ux, Initial residual = 0.000269696866385, Final residual = 2.06787023253e-05, No Iterations 4
smoothSolver:  Solving for Uy, Initial residual = 0.00111302708052, Final residual = 9.57228067675e-05, No Iterations 4
smoothSolver:  Solving for Uz, Initial residual = 0.00394424921912, Final residual = 0.000352500253933, No Iterations 4
GAMG:  Solving for p, Initial residual = 0.00165950153805, Final residual = 4.01588457264e-05, No Iterations 6
time step continuity errors : sum local = 0.00358484722134, global = 4.08104346164e-05, cumulative = -10.5310649372
ExecutionTime = 8.07 s  ClockTime = 8 s

Time = 108

smoothSolver:  Solving for Ux, Initial residual = 0.000267206266277, Final residual = 2.04167807045e-05, No Iterations 4
smoothSolver:  Solving for Uy, Initial residual = 0.00110568491737, Final residual = 9.51229425098e-05, No Iterations 4
smoothSolver:  Solving for Uz, Initial residual = 0.00387006779903, Final residual = 0.00034594080792, No Iterations 4
GAMG:  Solving for p, Initial residual = 0.00157611036682, Final residual = 5.28800350817e-05, No Iterations 6
time step continuity errors : sum local = 0.00466520497462, global = 2.35648429262e-05, cumulative = -10.5310413724
ExecutionTime = 8.16 s  ClockTime = 8 s

Time = 109

smoothSolver:  Solving for Ux, Initial residual = 0.000264546067723, Final residual = 2.00842565323e-05, No Iterations 4
smoothSolver:  Solving for Uy, Initial residual = 0.00110068023821, Final residual = 9.47270734969e-05, No Iterations 4
smoothSolver:  Solving for Uz, Initial residual = 0.00379831787404, Final residual = 0.000339547369931, No Iterations 4
GAMG:  Solving for p, Initial residual = 0.00153851367594, Final residual = 4.83290725637e-05, No Iterations 6
time step continuity errors : sum local = 0.00421425453939, global = 3.77080424148e-05, cumulative = -10.5310036643
ExecutionTime = 8.24 s  ClockTime = 8 s

Time = 110

smoothSolver:  Solving for Ux, Initial residual = 0.000260427778, Final residual = 1.97886599708e-05, No Iterations 4
smoothSolver:  Solving for Uy, Initial residual = 0.00109358220076, Final residual = 9.40622328703e-05, No Iterations 4
smoothSolver:  Solving for Uz, Initial residual = 0.00372707420529, Final residual = 0.000333239458769, No Iterations 4
GAMG:  Solving for p, Initial residual = 0.00152573795907, Final residual = 6.67091707587e-05, No Iterations 6
time step continuity errors : sum local = 0.00574802935212, global = 2.32431959441e-05, cumulative = -10.5309804211
ExecutionTime = 8.31 s  ClockTime = 8 s

Time = 111

smoothSolver:  Solving for Ux, Initial residual = 0.000258608061038, Final residual = 1.9509558284e-05, No Iterations 4
smoothSolver:  Solving for Uy, Initial residual = 0.00108623645695, Final residual = 9.34010172037e-05, No Iterations 4
smoothSolver:  Solving for Uz, Initial residual = 0.00365786339889, Final residual = 0.000327095578424, No Iterations 4
GAMG:  Solving for p, Initial residual = 0.0015013641311, Final residual = 5.85215021237e-05, No Iterations 6
time step continuity errors : sum local = 0.00498253770085, global = 3.50581464866e-05, cumulative = -10.530945363
ExecutionTime = 8.39 s  ClockTime = 8 s

Time = 112

smoothSolver:  Solving for Ux, Initial residual = 0.000256209123185, Final residual = 1.92580260215e-05, No Iterations 4
smoothSolver:  Solving for Uy, Initial residual = 0.00107787843988, Final residual = 9.26712193904e-05, No Iterations 4
smoothSolver:  Solving for Uz, Initial residual = 0.00358730277442, Final residual = 0.000320995030482, No Iterations 4
GAMG:  Solving for p, Initial residual = 0.00149191035677, Final residual = 5.2242991532e-05, No Iterations 6
time step continuity errors : sum local = 0.00439347092107, global = 3.81633359886e-05, cumulative = -10.5309071996
ExecutionTime = 8.46 s  ClockTime = 8 s

Time = 113

smoothSolver:  Solving for Ux, Initial residual = 0.000253904838501, Final residual = 1.89618935486e-05, No Iterations 4
smoothSolver:  Solving for Uy, Initial residual = 0.0010708061241, Final residual = 9.2067271188e-05, No Iterations 4
smoothSolver:  Solving for Uz, Initial residual = 0.00351904327905, Final residual = 0.000315035396973, No Iterations 4
GAMG:  Solving for p, Initial residual = 0.00148623060807, Final residual = 4.90272861346e-05, No Iterations 6
time step continuity errors : sum local = 0.00407176865842, global = 2.16435955595e-05, cumulative = -10.530885556
ExecutionTime = 8.55 s  ClockTime = 8 s

Time = 114

smoothSolver:  Solving for Ux, Initial residual = 0.000251592034423, Final residual = 1.86876851754e-05, No Iterations 4
smoothSolver:  Solving for Uy, Initial residual = 0.00106451224496, Final residual = 9.13712292778e-05, No Iterations 4
smoothSolver:  Solving for Uz, Initial residual = 0.00345235949971, Final residual = 0.000309180160433, No Iterations 4
GAMG:  Solving for p, Initial residual = 0.00146500623763, Final residual = 4.36278002953e-05, No Iterations 6
time step continuity errors : sum local = 0.00357831438582, global = 1.16905926751e-05, cumulative = -10.5308738655
ExecutionTime = 8.62 s  ClockTime = 8 s

Time = 115

smoothSolver:  Solving for Ux, Initial residual = 0.000249076290703, Final residual = 1.84105367954e-05, No Iterations 4
smoothSolver:  Solving for Uy, Initial residual = 0.00105803181564, Final residual = 9.0715714656e-05, No Iterations 4
smoothSolver:  Solving for Uz, Initial residual = 0.00338758793619, Final residual = 0.000303430622287, No Iterations 4
GAMG:  Solving for p, Initial residual = 0.00141739817141, Final residual = 3.41321489675e-05, No Iterations 6
time step continuity errors : sum local = 0.00276522318394, global = 1.83250439306e-05, cumulative = -10.5308555404
ExecutionTime = 8.69 s  ClockTime = 8 s

Time = 116

smoothSolver:  Solving for Ux, Initial residual = 0.000248057187514, Final residual = 1.82005973002e-05, No Iterations 4
smoothSolver:  Solving for Uy, Initial residual = 0.00104907396704, Final residual = 8.99916526409e-05, No Iterations 4
smoothSolver:  Solving for Uz, Initial residual = 0.00332062191324, Final residual = 0.000297774786495, No Iterations 4
GAMG:  Solving for p, Initial residual = 0.00138430135747, Final residual = 3.09098077678e-05, No Iterations 6
time step continuity errors : sum local = 0.0024746857358, global = -7.06643567772e-07, cumulative = -10.5308562471
ExecutionTime = 8.76 s  ClockTime = 8 s

Time = 117

smoothSolver:  Solving for Ux, Initial residual = 0.000246411584695, Final residual = 1.793514331e-05, No Iterations 4
smoothSolver:  Solving for Uy, Initial residual = 0.00104251736691, Final residual = 8.93320416716e-05, No Iterations 4
smoothSolver:  Solving for Uz, Initial residual = 0.00325746818326, Final residual = 0.000292319128471, No Iterations 4
GAMG:  Solving for p, Initial residual = 0.00135220391947, Final residual = 3.14732915971e-05, No Iterations 6
time step continuity errors : sum local = 0.00248960692423, global = -5.25405629193e-06, cumulative = -10.5308615011
ExecutionTime = 8.83 s  ClockTime = 8 s

Time = 118

smoothSolver:  Solving for Ux, Initial residual = 0.000241831961891, Final residual = 1.76789683499e-05, No Iterations 4
smoothSolver:  Solving for Uy, Initial residual = 0.00103624335421, Final residual = 8.87309994942e-05, No Iterations 4
smoothSolver:  Solving for Uz, Initial residual = 0.00319483423377, Final residual = 0.000287064979048, No Iterations 4
GAMG:  Solving for p, Initial residual = 0.00133234606648, Final residual = 3.89941926297e-05, No Iterations 6
time step continuity errors : sum local = 0.00304974074322, global = 1.77742878042e-06, cumulative = -10.5308597237
ExecutionTime = 8.91 s  ClockTime = 8 s

Time = 119

smoothSolver:  Solving for Ux, Initial residual = 0.000241306121573, Final residual = 1.74678466379e-05, No Iterations 4
smoothSolver:  Solving for Uy, Initial residual = 0.00103054699139, Final residual = 8.81699143943e-05, No Iterations 4
smoothSolver:  Solving for Uz, Initial residual = 0.00313443254326, Final residual = 0.000281923724864, No Iterations 4
GAMG:  Solving for p, Initial residual = 0.00130251052775, Final residual = 3.59475122396e-05, No Iterations 6
time step continuity errors : sum local = 0.00278103818273, global = 1.40881062619e-05, cumulative = -10.5308456356
ExecutionTime = 8.97 s  ClockTime = 9 s

Time = 120

smoothSolver:  Solving for Ux, Initial residual = 0.000237848182782, Final residual = 1.72157873645e-05, No Iterations 4
smoothSolver:  Solving for Uy, Initial residual = 0.00102355882975, Final residual = 8.75600557054e-05, No Iterations 4
smoothSolver:  Solving for Uz, Initial residual = 0.00307692016416, Final residual = 0.000276917209729, No Iterations 4
GAMG:  Solving for p, Initial residual = 0.00128810932409, Final residual = 5.92830605197e-05, No Iterations 5
time step continuity errors : sum local = 0.00453635126922, global = 4.81249825801e-05, cumulative = -10.5307975106
ExecutionTime = 9.04 s  ClockTime = 9 s

Time = 121

smoothSolver:  Solving for Ux, Initial residual = 0.000235100836604, Final residual = 1.69805700858e-05, No Iterations 4
smoothSolver:  Solving for Uy, Initial residual = 0.00101590445908, Final residual = 8.68842392651e-05, No Iterations 4
smoothSolver:  Solving for Uz, Initial residual = 0.00301888916477, Final residual = 0.000272038866277, No Iterations 4
GAMG:  Solving for p, Initial residual = 0.00127935744531, Final residual = 5.45110623218e-05, No Iterations 5
time step continuity errors : sum local = 0.00412892747574, global = 8.17780907482e-06, cumulative = -10.5307893328
ExecutionTime = 9.11 s  ClockTime = 9 s

Time = 122

smoothSolver:  Solving for Ux, Initial residual = 0.000234429067744, Final residual = 1.67802413811e-05, No Iterations 4
smoothSolver:  Solving for Uy, Initial residual = 0.00100793706153, Final residual = 8.61556808917e-05, No Iterations 4
smoothSolver:  Solving for Uz, Initial residual = 0.00296073615866, Final residual = 0.000267185813535, No Iterations 4
GAMG:  Solving for p, Initial residual = 0.00131366215805, Final residual = 4.32002686147e-05, No Iterations 7
time step continuity errors : sum local = 0.00323126814345, global = 1.530323593e-05, cumulative = -10.5307740295
ExecutionTime = 9.18 s  ClockTime = 9 s

Time = 123

smoothSolver:  Solving for Ux, Initial residual = 0.000232538022025, Final residual = 1.65707241738e-05, No Iterations 4
smoothSolver:  Solving for Uy, Initial residual = 0.00100491464014, Final residual = 8.58429226301e-05, No Iterations 4
smoothSolver:  Solving for Uz, Initial residual = 0.00290514358431, Final residual = 0.000262519842781, No Iterations 4
GAMG:  Solving for p, Initial residual = 0.00132235520629, Final residual = 4.15016610736e-05, No Iterations 6
time step continuity errors : sum local = 0.00306786454344, global = 1.66959341394e-05, cumulative = -10.5307573336
ExecutionTime = 9.26 s  ClockTime = 9 s

Time = 124

smoothSolver:  Solving for Ux, Initial residual = 0.000230780632993, Final residual = 1.63401952515e-05, No Iterations 4
[...]
GAMG:  Solving for p, Initial residual = 1.73655858957e-06, Final residual = 8.74875503773e-07, No Iterations 1
time step continuity errors : sum local = 8.64589437334e-06, global = -2.29434158712e-08, cumulative = -10.5298817175
ExecutionTime = 147.39 s  ClockTime = 147 s

Time = 2025

smoothSolver:  Solving for Ux, Initial residual = 9.99302167509e-06, Final residual = 9.99302167509e-06, No Iterations 0
smoothSolver:  Solving for Uy, Initial residual = 0.000133462443788, Final residual = 1.21506362995e-05, No Iterations 4
smoothSolver:  Solving for Uz, Initial residual = 1.01729431226e-05, Final residual = 5.57097467712e-06, No Iterations 1
GAMG:  Solving for p, Initial residual = 1.73397826259e-06, Final residual = 8.73424961071e-07, No Iterations 1
time step continuity errors : sum local = 8.63154996215e-06, global = -2.51513617604e-08, cumulative = -10.5298817427
ExecutionTime = 147.46 s  ClockTime = 147 s

Time = 2026

smoothSolver:  Solving for Ux, Initial residual = 1.00069329599e-05, Final residual = 5.31236437343e-06, No Iterations 1
smoothSolver:  Solving for Uy, Initial residual = 0.000133281303512, Final residual = 1.21342505327e-05, No Iterations 4
smoothSolver:  Solving for Uz, Initial residual = 1.01616791293e-05, Final residual = 5.56480632637e-06, No Iterations 1
GAMG:  Solving for p, Initial residual = 1.73134153122e-06, Final residual = 8.71960101148e-07, No Iterations 1
time step continuity errors : sum local = 8.61706425661e-06, global = -2.76786992225e-08, cumulative = -10.5298817704
ExecutionTime = 147.53 s  ClockTime = 147 s

Time = 2027

smoothSolver:  Solving for Ux, Initial residual = 9.87997441025e-06, Final residual = 9.87997441025e-06, No Iterations 0
smoothSolver:  Solving for Uy, Initial residual = 0.000133100438083, Final residual = 1.21178894986e-05, No Iterations 4
smoothSolver:  Solving for Uz, Initial residual = 1.01504268506e-05, Final residual = 5.55864422376e-06, No Iterations 1
GAMG:  Solving for p, Initial residual = 1.72862953258e-06, Final residual = 8.72192123613e-07, No Iterations 1
time step continuity errors : sum local = 8.61934797155e-06, global = -4.10913422428e-08, cumulative = -10.5298818115
ExecutionTime = 147.59 s  ClockTime = 147 s

Time = 2028

smoothSolver:  Solving for Ux, Initial residual = 9.94741851916e-06, Final residual = 9.94741851916e-06, No Iterations 0
smoothSolver:  Solving for Uy, Initial residual = 0.000132920143656, Final residual = 1.2101579312e-05, No Iterations 4
smoothSolver:  Solving for Uz, Initial residual = 1.01391874197e-05, Final residual = 5.55248907445e-06, No Iterations 1
GAMG:  Solving for p, Initial residual = 1.72547500042e-06, Final residual = 8.69712194875e-07, No Iterations 1
time step continuity errors : sum local = 8.59483176616e-06, global = -4.58275869905e-08, cumulative = -10.5298818573
ExecutionTime = 147.66 s  ClockTime = 147 s

Time = 2029

smoothSolver:  Solving for Ux, Initial residual = 9.96711050167e-06, Final residual = 9.96711050167e-06, No Iterations 0
smoothSolver:  Solving for Uy, Initial residual = 0.000132739952714, Final residual = 1.20852802987e-05, No Iterations 4
smoothSolver:  Solving for Uz, Initial residual = 1.01279603891e-05, Final residual = 5.54634109607e-06, No Iterations 1
GAMG:  Solving for p, Initial residual = 1.72240697168e-06, Final residual = 8.67666986545e-07, No Iterations 1
time step continuity errors : sum local = 8.57461182418e-06, global = -5.17769878675e-08, cumulative = -10.5298819091
ExecutionTime = 147.72 s  ClockTime = 147 s

Time = 2030

smoothSolver:  Solving for Ux, Initial residual = 9.98963731249e-06, Final residual = 9.98963731249e-06, No Iterations 0
smoothSolver:  Solving for Uy, Initial residual = 0.000132559935455, Final residual = 1.20689938437e-05, No Iterations 4
smoothSolver:  Solving for Uz, Initial residual = 1.01167460609e-05, Final residual = 5.54020030232e-06, No Iterations 1
GAMG:  Solving for p, Initial residual = 1.71933780503e-06, Final residual = 8.65955770065e-07, No Iterations 1
time step continuity errors : sum local = 8.55769280173e-06, global = -5.79542769052e-08, cumulative = -10.529881967
ExecutionTime = 147.79 s  ClockTime = 147 s

Time = 2031

smoothSolver:  Solving for Ux, Initial residual = 9.98765025022e-06, Final residual = 9.98765025022e-06, No Iterations 0
smoothSolver:  Solving for Uy, Initial residual = 0.000132380156424, Final residual = 1.20527271597e-05, No Iterations 4
smoothSolver:  Solving for Uz, Initial residual = 1.01055450301e-05, Final residual = 5.53406682968e-06, No Iterations 1
GAMG:  Solving for p, Initial residual = 1.71645518022e-06, Final residual = 8.64567315306e-07, No Iterations 1
time step continuity errors : sum local = 8.54396372632e-06, global = -6.37632865872e-08, cumulative = -10.5298820308
ExecutionTime = 147.86 s  ClockTime = 147 s

Time = 2032

smoothSolver:  Solving for Ux, Initial residual = 9.99745598613e-06, Final residual = 9.99745598613e-06, No Iterations 0
smoothSolver:  Solving for Uy, Initial residual = 0.000132200667177, Final residual = 1.20364860022e-05, No Iterations 4
smoothSolver:  Solving for Uz, Initial residual = 1.00943574253e-05, Final residual = 5.52794053878e-06, No Iterations 1
GAMG:  Solving for p, Initial residual = 1.71385618649e-06, Final residual = 8.49735516996e-07, No Iterations 1
time step continuity errors : sum local = 8.39738337943e-06, global = -5.14991091578e-08, cumulative = -10.5298820823
ExecutionTime = 147.93 s  ClockTime = 147 s

Time = 2033

smoothSolver:  Solving for Ux, Initial residual = 9.99164247572e-06, Final residual = 9.99164247572e-06, No Iterations 0
smoothSolver:  Solving for Uy, Initial residual = 0.000132017322748, Final residual = 1.2019900032e-05, No Iterations 4
smoothSolver:  Solving for Uz, Initial residual = 1.00832050429e-05, Final residual = 5.52183421526e-06, No Iterations 1
GAMG:  Solving for p, Initial residual = 1.71718002696e-06, Final residual = 8.76614854021e-07, No Iterations 1
time step continuity errors : sum local = 8.66300499922e-06, global = -7.16740954598e-08, cumulative = -10.529882154
ExecutionTime = 147.99 s  ClockTime = 148 s

Time = 2034

smoothSolver:  Solving for Ux, Initial residual = 9.99209078296e-06, Final residual = 9.99209078296e-06, No Iterations 0
smoothSolver:  Solving for Uy, Initial residual = 0.000131840589259, Final residual = 1.20038956206e-05, No Iterations 4
smoothSolver:  Solving for Uz, Initial residual = 1.00720119676e-05, Final residual = 5.51570459188e-06, No Iterations 1
GAMG:  Solving for p, Initial residual = 1.71055826551e-06, Final residual = 8.70743258026e-07, No Iterations 1
time step continuity errors : sum local = 8.60497278454e-06, global = -7.39799578736e-08, cumulative = -10.5298822279
ExecutionTime = 148.06 s  ClockTime = 148 s

Time = 2035

smoothSolver:  Solving for Ux, Initial residual = 9.99888344433e-06, Final residual = 9.99888344433e-06, No Iterations 0
smoothSolver:  Solving for Uy, Initial residual = 0.000131663644272, Final residual = 1.19879014794e-05, No Iterations 4
smoothSolver:  Solving for Uz, Initial residual = 1.00608328117e-05, Final residual = 5.50958312399e-06, No Iterations 1
GAMG:  Solving for p, Initial residual = 1.70820953267e-06, Final residual = 8.48206089157e-07, No Iterations 1
time step continuity errors : sum local = 8.38224660532e-06, global = -5.95745090401e-08, cumulative = -10.5298822875
ExecutionTime = 148.13 s  ClockTime = 148 s

Time = 2036

smoothSolver:  Solving for Ux, Initial residual = 9.99830925863e-06, Final residual = 9.99830925863e-06, No Iterations 0
smoothSolver:  Solving for Uy, Initial residual = 0.00013148089846, Final residual = 1.19713792836e-05, No Iterations 4
smoothSolver:  Solving for Uz, Initial residual = 1.00497100241e-05, Final residual = 5.50349325153e-06, No Iterations 1
GAMG:  Solving for p, Initial residual = 1.708323017e-06, Final residual = 8.76929604742e-07, No Iterations 1
time step continuity errors : sum local = 8.66609249257e-06, global = -7.83196791675e-08, cumulative = -10.5298823658
ExecutionTime = 148.19 s  ClockTime = 148 s

Time = 2037

smoothSolver:  Solving for Ux, Initial residual = 1.00120389658e-05, Final residual = 5.31712490281e-06, No Iterations 1
smoothSolver:  Solving for Uy, Initial residual = 0.000131305631128, Final residual = 1.19554988633e-05, No Iterations 4
smoothSolver:  Solving for Uz, Initial residual = 1.0038549698e-05, Final residual = 5.49738143898e-06, No Iterations 1
GAMG:  Solving for p, Initial residual = 1.70211565728e-06, Final residual = 8.692068012e-07, No Iterations 1
time step continuity errors : sum local = 8.58976687335e-06, global = -7.92065139986e-08, cumulative = -10.529882445
ExecutionTime = 148.25 s  ClockTime = 148 s

Time = 2038

smoothSolver:  Solving for Ux, Initial residual = 9.89137530572e-06, Final residual = 9.89137530572e-06, No Iterations 0
smoothSolver:  Solving for Uy, Initial residual = 0.000131129816205, Final residual = 1.19396001184e-05, No Iterations 4
smoothSolver:  Solving for Uz, Initial residual = 1.00274138225e-05, Final residual = 5.49128300614e-06, No Iterations 1
GAMG:  Solving for p, Initial residual = 1.70232491536e-06, Final residual = 8.40770097823e-07, No Iterations 1
time step continuity errors : sum local = 8.30874102056e-06, global = -6.33490051339e-08, cumulative = -10.5298825084
ExecutionTime = 148.32 s  ClockTime = 148 s

Time = 2039

smoothSolver:  Solving for Ux, Initial residual = 9.9532337149e-06, Final residual = 9.9532337149e-06, No Iterations 0
smoothSolver:  Solving for Uy, Initial residual = 0.000130946652272, Final residual = 1.19230367947e-05, No Iterations 4
smoothSolver:  Solving for Uz, Initial residual = 1.00163411858e-05, Final residual = 5.48522016502e-06, No Iterations 1
GAMG:  Solving for p, Initial residual = 1.69741412535e-06, Final residual = 9.36283318309e-07, No Iterations 1
time step continuity errors : sum local = 9.25262154411e-06, global = -3.48148694431e-08, cumulative = -10.5298825432
ExecutionTime = 148.38 s  ClockTime = 148 s

Time = 2040

smoothSolver:  Solving for Ux, Initial residual = 9.97652705522e-06, Final residual = 9.97652705522e-06, No Iterations 0
smoothSolver:  Solving for Uy, Initial residual = 0.000130782176496, Final residual = 1.19080979405e-05, No Iterations 4
smoothSolver:  Solving for Uz, Initial residual = 1.00052099925e-05, Final residual = 5.47912527357e-06, No Iterations 1
GAMG:  Solving for p, Initial residual = 1.7100593962e-06, Final residual = 8.42714528895e-07, No Iterations 1
time step continuity errors : sum local = 8.32795538355e-06, global = -6.50680305689e-08, cumulative = -10.5298826083
ExecutionTime = 148.45 s  ClockTime = 148 s

Time = 2041

smoothSolver:  Solving for Ux, Initial residual = 9.98884632808e-06, Final residual = 9.98884632808e-06, No Iterations 0
smoothSolver:  Solving for Uy, Initial residual = 0.000130596961902, Final residual = 1.18914084297e-05, No Iterations 4
smoothSolver:  Solving for Uz, Initial residual = 9.99418648086e-06, Final residual = 9.99418648086e-06, No Iterations 0
GAMG:  Solving for p, Initial residual = 3.51900598786e-05, Final residual = 1.32242672795e-06, No Iterations 10
time step continuity errors : sum local = 1.30686057711e-05, global = 5.89973658742e-08, cumulative = -10.5298825493
ExecutionTime = 148.52 s  ClockTime = 148 s

Time = 2042

smoothSolver:  Solving for Ux, Initial residual = 9.99198971657e-06, Final residual = 9.99198971657e-06, No Iterations 0
smoothSolver:  Solving for Uy, Initial residual = 0.000102368474838, Final residual = 9.25850859477e-06, No Iterations 4
smoothSolver:  Solving for Uz, Initial residual = 1.02502319547e-05, Final residual = 5.60921238935e-06, No Iterations 1
GAMG:  Solving for p, Initial residual = 2.44759638094e-05, Final residual = 7.57046503567e-07, No Iterations 10
time step continuity errors : sum local = 7.4810922766e-06, global = -4.76238981216e-08, cumulative = -10.5298825969
ExecutionTime = 148.6 s  ClockTime = 148 s

Time = 2043

smoothSolver:  Solving for Ux, Initial residual = 9.99851002977e-06, Final residual = 9.99851002977e-06, No Iterations 0
smoothSolver:  Solving for Uy, Initial residual = 0.000104550718847, Final residual = 9.50167769216e-06, No Iterations 4
smoothSolver:  Solving for Uz, Initial residual = 1.0207278473e-05, Final residual = 5.58686688084e-06, No Iterations 1
GAMG:  Solving for p, Initial residual = 1.85524910358e-05, Final residual = 7.76918711949e-07, No Iterations 8
time step continuity errors : sum local = 7.67743211803e-06, global = -1.77254866385e-08, cumulative = -10.5298826146
ExecutionTime = 148.68 s  ClockTime = 148 s

Time = 2044

smoothSolver:  Solving for Ux, Initial residual = 1.00019837374e-05, Final residual = 5.3115837601e-06, No Iterations 1
smoothSolver:  Solving for Uy, Initial residual = 0.000111491911151, Final residual = 1.01337804836e-05, No Iterations 4
smoothSolver:  Solving for Uz, Initial residual = 1.01118652798e-05, Final residual = 5.53608629333e-06, No Iterations 1
GAMG:  Solving for p, Initial residual = 1.96521647176e-05, Final residual = 9.49392364401e-07, No Iterations 8
time step continuity errors : sum local = 9.38184984206e-06, global = -2.17219558038e-08, cumulative = -10.5298826364
ExecutionTime = 148.75 s  ClockTime = 148 s

Time = 2045

smoothSolver:  Solving for Ux, Initial residual = 9.88774047207e-06, Final residual = 9.88774047207e-06, No Iterations 0
smoothSolver:  Solving for Uy, Initial residual = 0.000121730607424, Final residual = 1.10591051603e-05, No Iterations 4
smoothSolver:  Solving for Uz, Initial residual = 1.00090822415e-05, Final residual = 5.48119787243e-06, No Iterations 1
GAMG:  Solving for p, Initial residual = 1.93712420571e-05, Final residual = 8.49629532624e-07, No Iterations 7
time step continuity errors : sum local = 8.39604540554e-06, global = -2.07781327924e-08, cumulative = -10.5298826571
ExecutionTime = 148.82 s  ClockTime = 148 s

Time = 2046

smoothSolver:  Solving for Ux, Initial residual = 9.95738506497e-06, Final residual = 9.95738506497e-06, No Iterations 0
smoothSolver:  Solving for Uy, Initial residual = 0.000128980023135, Final residual = 1.17182389186e-05, No Iterations 4
smoothSolver:  Solving for Uz, Initial residual = 9.93421621783e-06, Final residual = 9.93421621783e-06, No Iterations 0
GAMG:  Solving for p, Initial residual = 3.23170096951e-05, Final residual = 1.38191854582e-06, No Iterations 10
time step continuity errors : sum local = 1.36562684825e-05, global = 4.14337680569e-08, cumulative = -10.5298826157
ExecutionTime = 148.9 s  ClockTime = 148 s

Time = 2047

smoothSolver:  Solving for Ux, Initial residual = 9.96908712549e-06, Final residual = 9.96908712549e-06, No Iterations 0
smoothSolver:  Solving for Uy, Initial residual = 0.000105313136706, Final residual = 9.52018745459e-06, No Iterations 4
smoothSolver:  Solving for Uz, Initial residual = 1.0155680288e-05, Final residual = 5.55873749392e-06, No Iterations 1
GAMG:  Solving for p, Initial residual = 2.05575679571e-05, Final residual = 8.16160883228e-07, No Iterations 10
time step continuity errors : sum local = 8.06515327507e-06, global = -1.25909559188e-08, cumulative = -10.5298826283
ExecutionTime = 148.98 s  ClockTime = 149 s

Time = 2048

smoothSolver:  Solving for Ux, Initial residual = 9.981400091e-06, Final residual = 9.981400091e-06, No Iterations 0
smoothSolver:  Solving for Uy, Initial residual = 0.000107458231236, Final residual = 9.77953173937e-06, No Iterations 4
smoothSolver:  Solving for Uz, Initial residual = 1.01108520634e-05, Final residual = 5.53518590769e-06, No Iterations 1
GAMG:  Solving for p, Initial residual = 1.5685141776e-05, Final residual = 7.58702360499e-07, No Iterations 8
time step continuity errors : sum local = 7.49736048232e-06, global = -1.82923176342e-08, cumulative = -10.5298826466
ExecutionTime = 149.05 s  ClockTime = 149 s

Time = 2049

smoothSolver:  Solving for Ux, Initial residual = 9.98322394844e-06, Final residual = 9.98322394844e-06, No Iterations 0
smoothSolver:  Solving for Uy, Initial residual = 0.000113704708627, Final residual = 1.03433603686e-05, No Iterations 4
smoothSolver:  Solving for Uz, Initial residual = 1.00267717603e-05, Final residual = 5.49024928444e-06, No Iterations 1
GAMG:  Solving for p, Initial residual = 1.58404566652e-05, Final residual = 9.89440356012e-07, No Iterations 7
time step continuity errors : sum local = 9.77751029813e-06, global = -2.81154721106e-08, cumulative = -10.5298826747
ExecutionTime = 149.13 s  ClockTime = 149 s

Time = 2050

smoothSolver:  Solving for Ux, Initial residual = 9.99579498318e-06, Final residual = 9.99579498318e-06, No Iterations 0
smoothSolver:  Solving for Uy, Initial residual = 0.000122587552223, Final residual = 1.11424569858e-05, No Iterations 4
smoothSolver:  Solving for Uz, Initial residual = 9.9394031259e-06, Final residual = 9.9394031259e-06, No Iterations 0
GAMG:  Solving for p, Initial residual = 2.77769768304e-05, Final residual = 1.23872619836e-06, No Iterations 10
time step continuity errors : sum local = 1.22410130685e-05, global = 4.26991458494e-08, cumulative = -10.529882632
ExecutionTime = 149.21 s  ClockTime = 149 s

Time = 2051

smoothSolver:  Solving for Ux, Initial residual = 9.97974210093e-06, Final residual = 9.97974210093e-06, No Iterations 0
smoothSolver:  Solving for Uy, Initial residual = 0.000100185246055, Final residual = 9.06471694089e-06, No Iterations 4
smoothSolver:  Solving for Uz, Initial residual = 1.01424763393e-05, Final residual = 5.55136276493e-06, No Iterations 1
GAMG:  Solving for p, Initial residual = 1.80019361623e-05, Final residual = 8.29448440667e-07, No Iterations 10
time step continuity errors : sum local = 8.19634211982e-06, global = -8.84860433345e-09, cumulative = -10.5298826408
ExecutionTime = 149.28 s  ClockTime = 149 s

Time = 2052

smoothSolver:  Solving for Ux, Initial residual = 9.98478142664e-06, Final residual = 9.98478142664e-06, No Iterations 0
smoothSolver:  Solving for Uy, Initial residual = 0.000105589033868, Final residual = 9.60626297068e-06, No Iterations 4
smoothSolver:  Solving for Uz, Initial residual = 1.00811248219e-05, Final residual = 5.51893772885e-06, No Iterations 1
GAMG:  Solving for p, Initial residual = 1.50450820361e-05, Final residual = 7.83035367429e-07, No Iterations 8
time step continuity errors : sum local = 7.73774222401e-06, global = -2.92514672269e-08, cumulative = -10.5298826701
ExecutionTime = 149.35 s  ClockTime = 149 s

Time = 2053

smoothSolver:  Solving for Ux, Initial residual = 9.97996059966e-06, Final residual = 9.97996059966e-06, No Iterations 0
smoothSolver:  Solving for Uy, Initial residual = 0.000113238640377, Final residual = 1.02986438926e-05, No Iterations 4
smoothSolver:  Solving for Uz, Initial residual = 9.98759327059e-06, Final residual = 9.98759327059e-06, No Iterations 0
GAMG:  Solving for p, Initial residual = 2.39306209078e-05, Final residual = 1.05251833271e-06, No Iterations 10
time step continuity errors : sum local = 1.04007881248e-05, global = 4.47053629019e-08, cumulative = -10.5298826254
ExecutionTime = 149.43 s  ClockTime = 149 s

Time = 2054

smoothSolver:  Solving for Ux, Initial residual = 9.98838846092e-06, Final residual = 9.98838846092e-06, No Iterations 0
smoothSolver:  Solving for Uy, Initial residual = 9.34591218277e-05, Final residual = 8.45988907056e-06, No Iterations 4
smoothSolver:  Solving for Uz, Initial residual = 1.01631014752e-05, Final residual = 5.56216021305e-06, No Iterations 1
GAMG:  Solving for p, Initial residual = 1.64188233701e-05, Final residual = 7.41664669548e-07, No Iterations 10
time step continuity errors : sum local = 7.32875584363e-06, global = -9.70693447416e-09, cumulative = -10.5298826351
ExecutionTime = 149.5 s  ClockTime = 149 s


SIMPLE solution converged in 2054 iterations

    writing object shearStress
End

Finalising parallel run
