/*---------------------------------------------------------------------------*\
  =========                 |
  \\      /  F ield         | OpenFOAM: The Open Source CFD Toolbox
   \\    /   O peration     | Website:  https://openfoam.org
    \\  /    A nd           | Version:  9
     \\/     M anipulation  |
\*---------------------------------------------------------------------------*/
Build  : 9-b456138dc4bc
Exec   : simpleFoam -parallel
Date   : Apr 12 2022
Time   : 12:21:51
Host   : "KORIN-LAB"
PID    : 3846
I/O    : uncollated
Case   : /home/colin/OpenFOAM/colin-9/run/wsl/wedge_needle/45_temp/tapered_true_layer
nProcs : 6
Slaves : 
5
(
"KORIN-LAB.3847"
"KORIN-LAB.3848"
"KORIN-LAB.3849"
"KORIN-LAB.3850"
"KORIN-LAB.3851"
)

Pstream initialised with:
    floatTransfer      : 0
    nProcsSimpleSum    : 0
    commsType          : nonBlocking
    polling iterations : 0
sigFpe : Enabling floating point exception trapping (FOAM_SIGFPE).
fileModificationChecking : Monitoring run-time modified files using timeStampMaster (fileModificationSkew 10)
allowSystemOperations : Allowing user-supplied system call operations

// * * * * * * * * * * * * * * * * * * * * * * * * * * * * * * * * * * * * * //
Create time

Create mesh for time = 0


SIMPLE: Convergence criteria found
        p: tolerance 0.001
        U: tolerance 0.0001
        "(k|epsilon|omega|f|v2)": tolerance 0.0001

Reading field p

Reading field U

Reading/calculating face flux field phi

Selecting incompressible transport model powerLaw
Selecting turbulence model type laminar
Selecting laminar stress model Stokes
No MRF models present

No fvModels present
No fvConstraints present

Starting time loop

wallShearStress wallShearStress:
    processing all wall patches

Time = 1

smoothSolver:  Solving for Ux, Initial residual = 0.999927969451, Final residual = 0.0919376946181, No Iterations 2
smoothSolver:  Solving for Uy, Initial residual = 0.999999999998, Final residual = 0.0705822008602, No Iterations 2
smoothSolver:  Solving for Uz, Initial residual = 1, Final residual = 0.0920630302967, No Iterations 2
GAMG:  Solving for p, Initial residual = 0.999999999986, Final residual = 0.0448272268044, No Iterations 28
time step continuity errors : sum local = 0.0146486186115, global = -7.71368203483e-06, cumulative = -7.71368203483e-06
ExecutionTime = 0.16 s  ClockTime = 0 s

Time = 2

smoothSolver:  Solving for Ux, Initial residual = 0.729043330431, Final residual = 0.0627471737376, No Iterations 4
smoothSolver:  Solving for Uy, Initial residual = 0.797561608569, Final residual = 0.0711728191221, No Iterations 4
smoothSolver:  Solving for Uz, Initial residual = 0.706304757234, Final residual = 0.0624507020982, No Iterations 4
GAMG:  Solving for p, Initial residual = 0.00879507130619, Final residual = 0.000341569232612, No Iterations 16
time step continuity errors : sum local = 2.27438429529, global = 0.00615985928093, cumulative = 0.0061521455989
ExecutionTime = 0.22 s  ClockTime = 0 s

Time = 3

smoothSolver:  Solving for Ux, Initial residual = 0.132289771291, Final residual = 0.00757465541132, No Iterations 4
smoothSolver:  Solving for Uy, Initial residual = 0.442067363381, Final residual = 0.0371428187447, No Iterations 4
smoothSolver:  Solving for Uz, Initial residual = 0.0775715050837, Final residual = 0.00686025856603, No Iterations 4
GAMG:  Solving for p, Initial residual = 0.0226565503442, Final residual = 0.00102262282982, No Iterations 17
time step continuity errors : sum local = 2.31708905867, global = 0.00404879734254, cumulative = 0.0102009429414
ExecutionTime = 0.3 s  ClockTime = 0 s

Time = 4

smoothSolver:  Solving for Ux, Initial residual = 0.00736556256637, Final residual = 0.000411207828221, No Iterations 4
smoothSolver:  Solving for Uy, Initial residual = 0.131768318324, Final residual = 0.0116004077254, No Iterations 4
smoothSolver:  Solving for Uz, Initial residual = 0.0246514539096, Final residual = 0.0020927800982, No Iterations 4
GAMG:  Solving for p, Initial residual = 0.162630270389, Final residual = 0.00628390860105, No Iterations 13
time step continuity errors : sum local = 3.68045938584, global = 0.00979721627813, cumulative = 0.0199981592196
ExecutionTime = 0.39 s  ClockTime = 0 s

Time = 5

smoothSolver:  Solving for Ux, Initial residual = 0.00210782086427, Final residual = 0.000130964396502, No Iterations 4
smoothSolver:  Solving for Uy, Initial residual = 0.0290038965221, Final residual = 0.00246845241195, No Iterations 4
smoothSolver:  Solving for Uz, Initial residual = 0.0152908425823, Final residual = 0.00120662324585, No Iterations 4
GAMG:  Solving for p, Initial residual = 0.128869461286, Final residual = 0.00635991865609, No Iterations 10
time step continuity errors : sum local = 3.33297801359, global = 0.000797871203487, cumulative = 0.0207960304231
ExecutionTime = 0.45 s  ClockTime = 0 s

Time = 6

smoothSolver:  Solving for Ux, Initial residual = 0.000978368332422, Final residual = 9.33405134848e-05, No Iterations 3
smoothSolver:  Solving for Uy, Initial residual = 0.0574921486373, Final residual = 0.00498444968288, No Iterations 4
smoothSolver:  Solving for Uz, Initial residual = 0.0461209159839, Final residual = 0.00397399607744, No Iterations 4
GAMG:  Solving for p, Initial residual = 0.0505790710234, Final residual = 0.00190715583884, No Iterations 13
time step continuity errors : sum local = 1.05555811993, global = -0.00372358325352, cumulative = 0.0170724471695
ExecutionTime = 0.53 s  ClockTime = 0 s

Time = 7

smoothSolver:  Solving for Ux, Initial residual = 0.000639773671229, Final residual = 4.55137100222e-05, No Iterations 3
smoothSolver:  Solving for Uy, Initial residual = 0.320290061954, Final residual = 0.0283933526819, No Iterations 4
smoothSolver:  Solving for Uz, Initial residual = 0.132175509415, Final residual = 0.0116362022132, No Iterations 4
GAMG:  Solving for p, Initial residual = 0.0829349436737, Final residual = 0.00412658956464, No Iterations 11
time step continuity errors : sum local = 1.35745010245, global = -0.00455620361025, cumulative = 0.0125162435593
ExecutionTime = 0.61 s  ClockTime = 0 s

Time = 8

smoothSolver:  Solving for Ux, Initial residual = 0.000621732602887, Final residual = 4.7717012183e-05, No Iterations 3
smoothSolver:  Solving for Uy, Initial residual = 0.127961748342, Final residual = 0.011380882905, No Iterations 4
smoothSolver:  Solving for Uz, Initial residual = 0.210334978735, Final residual = 0.0185128448793, No Iterations 4
GAMG:  Solving for p, Initial residual = 0.218615630157, Final residual = 0.00902269972452, No Iterations 11
time step continuity errors : sum local = 1.11741082629, global = -0.00184517839624, cumulative = 0.010671065163
ExecutionTime = 0.68 s  ClockTime = 1 s

Time = 9

smoothSolver:  Solving for Ux, Initial residual = 0.000585875122513, Final residual = 5.1768512779e-05, No Iterations 3
smoothSolver:  Solving for Uy, Initial residual = 0.0532740323454, Final residual = 0.00469313955689, No Iterations 4
smoothSolver:  Solving for Uz, Initial residual = 0.0740309337339, Final residual = 0.00647573073593, No Iterations 4
GAMG:  Solving for p, Initial residual = 0.186013915835, Final residual = 0.00746931417857, No Iterations 11
time step continuity errors : sum local = 0.792985054984, global = 9.9777713064e-05, cumulative = 0.0107708428761
ExecutionTime = 0.77 s  ClockTime = 1 s

Time = 10

smoothSolver:  Solving for Ux, Initial residual = 0.000531884669353, Final residual = 5.07885096397e-05, No Iterations 3
smoothSolver:  Solving for Uy, Initial residual = 0.0327835279576, Final residual = 0.00274088963793, No Iterations 4
smoothSolver:  Solving for Uz, Initial residual = 0.0196865388018, Final residual = 0.00165000376846, No Iterations 4
GAMG:  Solving for p, Initial residual = 0.109362857867, Final residual = 0.00534068746708, No Iterations 9
time step continuity errors : sum local = 0.614146426238, global = 0.00473832180279, cumulative = 0.0155091646789
ExecutionTime = 0.83 s  ClockTime = 1 s

Time = 11

smoothSolver:  Solving for Ux, Initial residual = 0.000485617059438, Final residual = 2.73145975695e-05, No Iterations 4
smoothSolver:  Solving for Uy, Initial residual = 0.0713934170227, Final residual = 0.00617443798202, No Iterations 4
smoothSolver:  Solving for Uz, Initial residual = 0.0147941978276, Final residual = 0.00126830233504, No Iterations 4
GAMG:  Solving for p, Initial residual = 0.104157983146, Final residual = 0.00450178441521, No Iterations 9
time step continuity errors : sum local = 0.387637613868, global = 0.0014253898514, cumulative = 0.0169345545303
ExecutionTime = 0.9 s  ClockTime = 1 s

Time = 12

smoothSolver:  Solving for Ux, Initial residual = 0.000470126918897, Final residual = 2.92262957192e-05, No Iterations 4
smoothSolver:  Solving for Uy, Initial residual = 0.214702726344, Final residual = 0.0190550219843, No Iterations 4
smoothSolver:  Solving for Uz, Initial residual = 0.0165810868811, Final residual = 0.0014646787679, No Iterations 4
GAMG:  Solving for p, Initial residual = 0.140138392321, Final residual = 0.00616102647144, No Iterations 8
time step continuity errors : sum local = 0.325157953108, global = 0.000655952371873, cumulative = 0.0175905069022
ExecutionTime = 0.98 s  ClockTime = 1 s

Time = 13

smoothSolver:  Solving for Ux, Initial residual = 0.000502791601926, Final residual = 3.2347337245e-05, No Iterations 4
smoothSolver:  Solving for Uy, Initial residual = 0.360908796356, Final residual = 0.0322031745823, No Iterations 4
smoothSolver:  Solving for Uz, Initial residual = 0.0152518705377, Final residual = 0.00135342484782, No Iterations 4
GAMG:  Solving for p, Initial residual = 0.2127236592, Final residual = 0.00965030055039, No Iterations 10
time step continuity errors : sum local = 0.278887477952, global = -9.44079712386e-05, cumulative = 0.0174960989309
ExecutionTime = 1.05 s  ClockTime = 1 s

Time = 14

smoothSolver:  Solving for Ux, Initial residual = 0.000507973619269, Final residual = 3.32014509151e-05, No Iterations 4
smoothSolver:  Solving for Uy, Initial residual = 0.219200515971, Final residual = 0.0194498987475, No Iterations 4
smoothSolver:  Solving for Uz, Initial residual = 0.0106182796186, Final residual = 0.000934591535628, No Iterations 4
GAMG:  Solving for p, Initial residual = 0.259298535777, Final residual = 0.0110500398408, No Iterations 11
time step continuity errors : sum local = 0.206102653547, global = -0.000124649441405, cumulative = 0.0173714494895
ExecutionTime = 1.13 s  ClockTime = 1 s

Time = 15

smoothSolver:  Solving for Ux, Initial residual = 0.000509290113233, Final residual = 3.29601778543e-05, No Iterations 4
smoothSolver:  Solving for Uy, Initial residual = 0.0755590322658, Final residual = 0.00650917090872, No Iterations 4
smoothSolver:  Solving for Uz, Initial residual = 0.00534874293771, Final residual = 0.000451507270275, No Iterations 4
GAMG:  Solving for p, Initial residual = 0.193926426978, Final residual = 0.00603694181308, No Iterations 10
time step continuity errors : sum local = 0.110051885144, global = 0.000486992134474, cumulative = 0.017858441624
ExecutionTime = 1.21 s  ClockTime = 1 s

Time = 16

smoothSolver:  Solving for Ux, Initial residual = 0.000500116235575, Final residual = 3.17580828823e-05, No Iterations 4
smoothSolver:  Solving for Uy, Initial residual = 0.04196865374, Final residual = 0.00356154181989, No Iterations 4
smoothSolver:  Solving for Uz, Initial residual = 0.00442016150063, Final residual = 0.000373075651246, No Iterations 4
GAMG:  Solving for p, Initial residual = 0.155036657186, Final residual = 0.00565290253889, No Iterations 9
time step continuity errors : sum local = 0.089331428233, global = -9.89282943874e-05, cumulative = 0.0177595133296
ExecutionTime = 1.28 s  ClockTime = 1 s

Time = 17

smoothSolver:  Solving for Ux, Initial residual = 0.000460837894647, Final residual = 3.04788167093e-05, No Iterations 4
smoothSolver:  Solving for Uy, Initial residual = 0.0467019918551, Final residual = 0.00408196414232, No Iterations 4
smoothSolver:  Solving for Uz, Initial residual = 0.00577153740718, Final residual = 0.000504850113535, No Iterations 4
GAMG:  Solving for p, Initial residual = 0.135226104686, Final residual = 0.00535705286018, No Iterations 9
time step continuity errors : sum local = 0.069114952538, global = -2.0354231437e-06, cumulative = 0.0177574779065
ExecutionTime = 1.36 s  ClockTime = 1 s

Time = 18

smoothSolver:  Solving for Ux, Initial residual = 0.000436199742771, Final residual = 2.97705918785e-05, No Iterations 4
smoothSolver:  Solving for Uy, Initial residual = 0.0406002332632, Final residual = 0.00355566518132, No Iterations 4
smoothSolver:  Solving for Uz, Initial residual = 0.00532613907198, Final residual = 0.000469153333594, No Iterations 4
GAMG:  Solving for p, Initial residual = 0.153256245836, Final residual = 0.00662094607122, No Iterations 9
time step continuity errors : sum local = 0.061304234116, global = 7.05735541248e-06, cumulative = 0.0177645352619
ExecutionTime = 1.43 s  ClockTime = 1 s

Time = 19

smoothSolver:  Solving for Ux, Initial residual = 0.000424874752974, Final residual = 2.97476494358e-05, No Iterations 4
smoothSolver:  Solving for Uy, Initial residual = 0.0281103396256, Final residual = 0.00243918277695, No Iterations 4
smoothSolver:  Solving for Uz, Initial residual = 0.00370554548193, Final residual = 0.000322388567517, No Iterations 4
GAMG:  Solving for p, Initial residual = 0.180085000067, Final residual = 0.00765455490613, No Iterations 9
time step continuity errors : sum local = 0.0517571657947, global = 3.22520296619e-06, cumulative = 0.0177677604648
ExecutionTime = 1.51 s  ClockTime = 1 s

Time = 20

smoothSolver:  Solving for Ux, Initial residual = 0.000423924197815, Final residual = 3.0439457243e-05, No Iterations 4
smoothSolver:  Solving for Uy, Initial residual = 0.0163021375333, Final residual = 0.00138096467625, No Iterations 4
smoothSolver:  Solving for Uz, Initial residual = 0.00215966837419, Final residual = 0.000180902037559, No Iterations 4
GAMG:  Solving for p, Initial residual = 0.133023051387, Final residual = 0.00538651559656, No Iterations 10
time step continuity errors : sum local = 0.0399288502773, global = -1.51821593583e-05, cumulative = 0.0177525783055
ExecutionTime = 1.58 s  ClockTime = 1 s

Time = 21

smoothSolver:  Solving for Ux, Initial residual = 0.000428525230523, Final residual = 3.14653107125e-05, No Iterations 4
smoothSolver:  Solving for Uy, Initial residual = 0.0124624022453, Final residual = 0.00105270929221, No Iterations 4
smoothSolver:  Solving for Uz, Initial residual = 0.00164530458002, Final residual = 0.000135373430775, No Iterations 4
GAMG:  Solving for p, Initial residual = 0.100946703236, Final residual = 0.004701970133, No Iterations 9
time step continuity errors : sum local = 0.0346930693097, global = 4.5895008765e-06, cumulative = 0.0177571678064
ExecutionTime = 1.66 s  ClockTime = 2 s

Time = 22

smoothSolver:  Solving for Ux, Initial residual = 0.000432459900298, Final residual = 3.23854103901e-05, No Iterations 4
smoothSolver:  Solving for Uy, Initial residual = 0.0156077207164, Final residual = 0.00136890546682, No Iterations 4
smoothSolver:  Solving for Uz, Initial residual = 0.00193733842477, Final residual = 0.000165132597077, No Iterations 4
GAMG:  Solving for p, Initial residual = 0.0821641409702, Final residual = 0.0039665790778, No Iterations 7
time step continuity errors : sum local = 0.0269016210036, global = 8.65367084561e-06, cumulative = 0.0177658214772
ExecutionTime = 1.73 s  ClockTime = 2 s

Time = 23

smoothSolver:  Solving for Ux, Initial residual = 0.000437470594195, Final residual = 3.32504172722e-05, No Iterations 4
smoothSolver:  Solving for Uy, Initial residual = 0.0147982951718, Final residual = 0.00130382952458, No Iterations 4
smoothSolver:  Solving for Uz, Initial residual = 0.00197385445623, Final residual = 0.00017020690864, No Iterations 4
GAMG:  Solving for p, Initial residual = 0.0794670188977, Final residual = 0.00350320637707, No Iterations 8
time step continuity errors : sum local = 0.020403904237, global = 2.5208942437e-06, cumulative = 0.0177683423715
ExecutionTime = 1.81 s  ClockTime = 2 s

Time = 24

smoothSolver:  Solving for Ux, Initial residual = 0.000440015791374, Final residual = 3.3856663092e-05, No Iterations 4
smoothSolver:  Solving for Uy, Initial residual = 0.0110761985078, Final residual = 0.000966698473551, No Iterations 4
smoothSolver:  Solving for Uz, Initial residual = 0.00159232814971, Final residual = 0.000135744652955, No Iterations 4
GAMG:  Solving for p, Initial residual = 0.0862525591575, Final residual = 0.00388331202947, No Iterations 9
time step continuity errors : sum local = 0.0183610002508, global = 6.94166250107e-06, cumulative = 0.017775284034
ExecutionTime = 1.88 s  ClockTime = 2 s

Time = 25

smoothSolver:  Solving for Ux, Initial residual = 0.000439403406092, Final residual = 3.41372494657e-05, No Iterations 4
smoothSolver:  Solving for Uy, Initial residual = 0.00754822788669, Final residual = 0.000645761749139, No Iterations 4
smoothSolver:  Solving for Uz, Initial residual = 0.00116492609756, Final residual = 9.62815011038e-05, No Iterations 4
GAMG:  Solving for p, Initial residual = 0.0902516729414, Final residual = 0.00338763436753, No Iterations 9
time step continuity errors : sum local = 0.0130354280904, global = 6.2265721556e-06, cumulative = 0.0177815106061
ExecutionTime = 1.96 s  ClockTime = 2 s

Time = 26

smoothSolver:  Solving for Ux, Initial residual = 0.000436916441437, Final residual = 3.42348616842e-05, No Iterations 4
smoothSolver:  Solving for Uy, Initial residual = 0.00588151717653, Final residual = 0.000486986368574, No Iterations 4
smoothSolver:  Solving for Uz, Initial residual = 0.000964484720272, Final residual = 7.79893481948e-05, No Iterations 4
GAMG:  Solving for p, Initial residual = 0.0852922841401, Final residual = 0.0036154087302, No Iterations 8
time step continuity errors : sum local = 0.0119518136022, global = 6.99319038819e-05, cumulative = 0.01785144251
ExecutionTime = 2.05 s  ClockTime = 2 s

Time = 27

smoothSolver:  Solving for Ux, Initial residual = 0.000432998838322, Final residual = 3.42457973069e-05, No Iterations 4
smoothSolver:  Solving for Uy, Initial residual = 0.00628148090227, Final residual = 0.000525105814067, No Iterations 4
smoothSolver:  Solving for Uz, Initial residual = 0.000970342122318, Final residual = 7.93500418361e-05, No Iterations 4
GAMG:  Solving for p, Initial residual = 0.0741195287842, Final residual = 0.00290013582581, No Iterations 8
time step continuity errors : sum local = 0.00892962445423, global = -7.89479211648e-06, cumulative = 0.0178435477179
ExecutionTime = 2.13 s  ClockTime = 2 s

Time = 28

smoothSolver:  Solving for Ux, Initial residual = 0.000430519114446, Final residual = 3.42933069292e-05, No Iterations 4
smoothSolver:  Solving for Uy, Initial residual = 0.00625391244331, Final residual = 0.000525563538936, No Iterations 4
smoothSolver:  Solving for Uz, Initial residual = 0.000978061278736, Final residual = 8.07986796887e-05, No Iterations 4
GAMG:  Solving for p, Initial residual = 0.0650271278491, Final residual = 0.00307306580188, No Iterations 7
time step continuity errors : sum local = 0.00907518340695, global = 3.25915536434e-07, cumulative = 0.0178438736334
ExecutionTime = 2.2 s  ClockTime = 2 s

Time = 29

smoothSolver:  Solving for Ux, Initial residual = 0.000428582467787, Final residual = 3.43769581832e-05, No Iterations 4
smoothSolver:  Solving for Uy, Initial residual = 0.00533145759408, Final residual = 0.000447793847971, No Iterations 4
smoothSolver:  Solving for Uz, Initial residual = 0.000920835040015, Final residual = 7.58213106026e-05, No Iterations 4
GAMG:  Solving for p, Initial residual = 0.0572672475294, Final residual = 0.00200042259686, No Iterations 8
time step continuity errors : sum local = 0.0058596429931, global = -1.93424994322e-06, cumulative = 0.0178419393835
ExecutionTime = 2.28 s  ClockTime = 2 s

Time = 30

smoothSolver:  Solving for Ux, Initial residual = 0.000428370012417, Final residual = 3.45313698285e-05, No Iterations 4
smoothSolver:  Solving for Uy, Initial residual = 0.00432761737226, Final residual = 0.000361491878791, No Iterations 4
smoothSolver:  Solving for Uz, Initial residual = 0.000836426623149, Final residual = 6.80910729191e-05, No Iterations 4
GAMG:  Solving for p, Initial residual = 0.0505871879632, Final residual = 0.00201456900907, No Iterations 8
time step continuity errors : sum local = 0.00590386001624, global = -3.4940548658e-06, cumulative = 0.0178384453286
ExecutionTime = 2.34 s  ClockTime = 2 s

Time = 31

smoothSolver:  Solving for Ux, Initial residual = 0.000428772407722, Final residual = 3.47380477167e-05, No Iterations 4
smoothSolver:  Solving for Uy, Initial residual = 0.00362388036352, Final residual = 0.000301044592607, No Iterations 4
smoothSolver:  Solving for Uz, Initial residual = 0.000777188919438, Final residual = 6.29334531444e-05, No Iterations 4
GAMG:  Solving for p, Initial residual = 0.0442145402661, Final residual = 0.00211394157771, No Iterations 7
time step continuity errors : sum local = 0.00604464796256, global = -2.91535491287e-05, cumulative = 0.0178092917795
ExecutionTime = 2.41 s  ClockTime = 2 s

Time = 32

smoothSolver:  Solving for Ux, Initial residual = 0.000428931760063, Final residual = 3.49133657073e-05, No Iterations 4
smoothSolver:  Solving for Uy, Initial residual = 0.00345902121492, Final residual = 0.000290188053018, No Iterations 4
smoothSolver:  Solving for Uz, Initial residual = 0.000745480053534, Final residual = 6.04788271599e-05, No Iterations 4
GAMG:  Solving for p, Initial residual = 0.0392705365037, Final residual = 0.00138093887409, No Iterations 7
time step continuity errors : sum local = 0.00376871763406, global = 1.29548148308e-05, cumulative = 0.0178222465943
ExecutionTime = 2.49 s  ClockTime = 2 s

Time = 33

smoothSolver:  Solving for Ux, Initial residual = 0.000429395280889, Final residual = 3.51008326682e-05, No Iterations 4
smoothSolver:  Solving for Uy, Initial residual = 0.00332313828722, Final residual = 0.000281415869391, No Iterations 4
smoothSolver:  Solving for Uz, Initial residual = 0.000730306738225, Final residual = 5.95163639355e-05, No Iterations 4
GAMG:  Solving for p, Initial residual = 0.035637620179, Final residual = 0.00143997935889, No Iterations 5
time step continuity errors : sum local = 0.0037285673326, global = 2.34159960476e-05, cumulative = 0.0178456625904
ExecutionTime = 2.57 s  ClockTime = 2 s

Time = 34

smoothSolver:  Solving for Ux, Initial residual = 0.000429794518485, Final residual = 3.52790478059e-05, No Iterations 4
smoothSolver:  Solving for Uy, Initial residual = 0.00322404614863, Final residual = 0.000274150294809, No Iterations 4
smoothSolver:  Solving for Uz, Initial residual = 0.00071201606942, Final residual = 5.8187044349e-05, No Iterations 4
GAMG:  Solving for p, Initial residual = 0.0330571658296, Final residual = 0.00150892472735, No Iterations 5
time step continuity errors : sum local = 0.00366649702763, global = 1.18408328674e-05, cumulative = 0.0178575034232
ExecutionTime = 2.64 s  ClockTime = 2 s

Time = 35

smoothSolver:  Solving for Ux, Initial residual = 0.00042969170383, Final residual = 3.54150896106e-05, No Iterations 4
smoothSolver:  Solving for Uy, Initial residual = 0.00305781434114, Final residual = 0.000259843980443, No Iterations 4
smoothSolver:  Solving for Uz, Initial residual = 0.000689961205994, Final residual = 5.64554662209e-05, No Iterations 4
GAMG:  Solving for p, Initial residual = 0.0312960909448, Final residual = 0.00121771533006, No Iterations 7
time step continuity errors : sum local = 0.0027705745368, global = 2.60589318679e-06, cumulative = 0.0178601093164
ExecutionTime = 2.72 s  ClockTime = 3 s

Time = 36

smoothSolver:  Solving for Ux, Initial residual = 0.000429666533678, Final residual = 3.55151572835e-05, No Iterations 4
smoothSolver:  Solving for Uy, Initial residual = 0.00292468950491, Final residual = 0.000248249785622, No Iterations 4
smoothSolver:  Solving for Uz, Initial residual = 0.000670325694322, Final residual = 5.48539172528e-05, No Iterations 4
GAMG:  Solving for p, Initial residual = 0.0298051245219, Final residual = 0.0012782947191, No Iterations 6
time step continuity errors : sum local = 0.00272997474026, global = 8.77360936364e-06, cumulative = 0.0178688829258
ExecutionTime = 2.79 s  ClockTime = 3 s

Time = 37

smoothSolver:  Solving for Ux, Initial residual = 0.000429806127965, Final residual = 3.56226825934e-05, No Iterations 4
smoothSolver:  Solving for Uy, Initial residual = 0.00284935659641, Final residual = 0.000242378271618, No Iterations 4
smoothSolver:  Solving for Uz, Initial residual = 0.000656774704073, Final residual = 5.38189943953e-05, No Iterations 4
GAMG:  Solving for p, Initial residual = 0.0275708607896, Final residual = 0.00126706913071, No Iterations 6
time step continuity errors : sum local = 0.00258261380279, global = 7.33799092853e-06, cumulative = 0.0178762209167
ExecutionTime = 2.86 s  ClockTime = 3 s

Time = 38

smoothSolver:  Solving for Ux, Initial residual = 0.000429789008156, Final residual = 3.57210076505e-05, No Iterations 4
smoothSolver:  Solving for Uy, Initial residual = 0.00282490462064, Final residual = 0.000241128670605, No Iterations 4
smoothSolver:  Solving for Uz, Initial residual = 0.000644826905677, Final residual = 5.29238573485e-05, No Iterations 4
GAMG:  Solving for p, Initial residual = 0.0250830537344, Final residual = 0.00108847376106, No Iterations 5
time step continuity errors : sum local = 0.00214188395174, global = -2.02991262106e-06, cumulative = 0.0178741910041
ExecutionTime = 2.93 s  ClockTime = 3 s

Time = 39

smoothSolver:  Solving for Ux, Initial residual = 0.000430223069896, Final residual = 3.58281364191e-05, No Iterations 4
smoothSolver:  Solving for Uy, Initial residual = 0.00276070650805, Final residual = 0.000236102771975, No Iterations 4
smoothSolver:  Solving for Uz, Initial residual = 0.000632531902272, Final residual = 5.19830670708e-05, No Iterations 4
GAMG:  Solving for p, Initial residual = 0.0228469368444, Final residual = 0.000936926569396, No Iterations 4
time step continuity errors : sum local = 0.00178437422889, global = -2.76697021732e-05, cumulative = 0.0178465213019
ExecutionTime = 3 s  ClockTime = 3 s

Time = 40

smoothSolver:  Solving for Ux, Initial residual = 0.000430956208996, Final residual = 3.59612858729e-05, No Iterations 4
smoothSolver:  Solving for Uy, Initial residual = 0.00266646751037, Final residual = 0.000228568268887, No Iterations 4
smoothSolver:  Solving for Uz, Initial residual = 0.000619071520142, Final residual = 5.09264904572e-05, No Iterations 4
GAMG:  Solving for p, Initial residual = 0.0210388273727, Final residual = 0.000894609595432, No Iterations 4
time step continuity errors : sum local = 0.00166004282116, global = -2.54032592301e-06, cumulative = 0.017843980976
ExecutionTime = 3.07 s  ClockTime = 3 s

Time = 41

smoothSolver:  Solving for Ux, Initial residual = 0.000431588755366, Final residual = 3.60900463954e-05, No Iterations 4
smoothSolver:  Solving for Uy, Initial residual = 0.00258035607862, Final residual = 0.000221648069558, No Iterations 4
smoothSolver:  Solving for Uz, Initial residual = 0.000604988088005, Final residual = 4.98021469397e-05, No Iterations 4
GAMG:  Solving for p, Initial residual = 0.0193963373517, Final residual = 0.000965526307142, No Iterations 5
time step continuity errors : sum local = 0.00174875791395, global = -5.10445533403e-06, cumulative = 0.0178388765206
ExecutionTime = 3.14 s  ClockTime = 3 s

Time = 42

smoothSolver:  Solving for Ux, Initial residual = 0.000432367806261, Final residual = 3.62044401739e-05, No Iterations 4
smoothSolver:  Solving for Uy, Initial residual = 0.0025067455583, Final residual = 0.000215689056956, No Iterations 4
smoothSolver:  Solving for Uz, Initial residual = 0.000590704828439, Final residual = 4.86575926422e-05, No Iterations 4
GAMG:  Solving for p, Initial residual = 0.0178245251527, Final residual = 0.00080013292134, No Iterations 5
time step continuity errors : sum local = 0.00141305478141, global = 3.79943403626e-06, cumulative = 0.0178426759547
ExecutionTime = 3.21 s  ClockTime = 3 s

Time = 43

smoothSolver:  Solving for Ux, Initial residual = 0.000432943275563, Final residual = 3.63147172964e-05, No Iterations 4
smoothSolver:  Solving for Uy, Initial residual = 0.00244332631927, Final residual = 0.000210734626667, No Iterations 4
smoothSolver:  Solving for Uz, Initial residual = 0.000577197478649, Final residual = 4.75929244661e-05, No Iterations 4
GAMG:  Solving for p, Initial residual = 0.0164019446624, Final residual = 0.000739068670659, No Iterations 4
time step continuity errors : sum local = 0.00127378788631, global = -2.0472138851e-05, cumulative = 0.0178222038158
ExecutionTime = 3.29 s  ClockTime = 3 s

Time = 44

smoothSolver:  Solving for Ux, Initial residual = 0.000433014744627, Final residual = 3.63958626986e-05, No Iterations 4
smoothSolver:  Solving for Uy, Initial residual = 0.00238689341089, Final residual = 0.000206345727401, No Iterations 4
smoothSolver:  Solving for Uz, Initial residual = 0.000565041632237, Final residual = 4.66529842707e-05, No Iterations 4
GAMG:  Solving for p, Initial residual = 0.0149882779869, Final residual = 0.000434296819695, No Iterations 4
time step continuity errors : sum local = 0.000730510942235, global = -3.28889223786e-06, cumulative = 0.0178189149236
ExecutionTime = 3.36 s  ClockTime = 3 s

Time = 45

smoothSolver:  Solving for Ux, Initial residual = 0.000433319542849, Final residual = 3.64639766924e-05, No Iterations 4
smoothSolver:  Solving for Uy, Initial residual = 0.0023422095843, Final residual = 0.000202756994809, No Iterations 4
smoothSolver:  Solving for Uz, Initial residual = 0.000553526929606, Final residual = 4.57650944747e-05, No Iterations 4
GAMG:  Solving for p, Initial residual = 0.0137941540247, Final residual = 0.000353068963003, No Iterations 4
time step continuity errors : sum local = 0.000579140668255, global = 8.45586540351e-07, cumulative = 0.0178197605101
ExecutionTime = 3.44 s  ClockTime = 3 s

Time = 46

smoothSolver:  Solving for Ux, Initial residual = 0.000433461913339, Final residual = 3.65376009202e-05, No Iterations 4
smoothSolver:  Solving for Uy, Initial residual = 0.00230046759388, Final residual = 0.000199423546045, No Iterations 4
smoothSolver:  Solving for Uz, Initial residual = 0.000542572242297, Final residual = 4.49202659866e-05, No Iterations 4
GAMG:  Solving for p, Initial residual = 0.0128191263922, Final residual = 0.000416822923758, No Iterations 4
time step continuity errors : sum local = 0.000667339652291, global = -3.30991569108e-06, cumulative = 0.0178164505944
ExecutionTime = 3.51 s  ClockTime = 3 s

Time = 47

smoothSolver:  Solving for Ux, Initial residual = 0.000433043909156, Final residual = 3.65814791737e-05, No Iterations 4
smoothSolver:  Solving for Uy, Initial residual = 0.00225783715043, Final residual = 0.000195919305015, No Iterations 4
smoothSolver:  Solving for Uz, Initial residual = 0.000531981990636, Final residual = 4.40908115753e-05, No Iterations 4
GAMG:  Solving for p, Initial residual = 0.0119565638448, Final residual = 0.000436802139134, No Iterations 4
time step continuity errors : sum local = 0.000684106319761, global = 2.31905762169e-06, cumulative = 0.0178187696521
ExecutionTime = 3.58 s  ClockTime = 3 s

Time = 48

smoothSolver:  Solving for Ux, Initial residual = 0.000432792348667, Final residual = 3.66226001803e-05, No Iterations 4
smoothSolver:  Solving for Uy, Initial residual = 0.00221793054983, Final residual = 0.000192684447197, No Iterations 4
smoothSolver:  Solving for Uz, Initial residual = 0.000522074859729, Final residual = 4.33188228363e-05, No Iterations 4
GAMG:  Solving for p, Initial residual = 0.0110832689112, Final residual = 0.000396691953903, No Iterations 4
time step continuity errors : sum local = 0.000609452692828, global = 3.36636898885e-06, cumulative = 0.0178221360211
ExecutionTime = 3.65 s  ClockTime = 4 s

Time = 49

smoothSolver:  Solving for Ux, Initial residual = 0.000432569074737, Final residual = 3.66810160312e-05, No Iterations 4
smoothSolver:  Solving for Uy, Initial residual = 0.00218001979813, Final residual = 0.000189524060798, No Iterations 4
smoothSolver:  Solving for Uz, Initial residual = 0.00051242419832, Final residual = 4.25603347061e-05, No Iterations 4
GAMG:  Solving for p, Initial residual = 0.0102528647145, Final residual = 0.000321590533677, No Iterations 4
time step continuity errors : sum local = 0.000485285616807, global = 3.39435104937e-06, cumulative = 0.0178255303721
ExecutionTime = 3.73 s  ClockTime = 4 s

Time = 50

smoothSolver:  Solving for Ux, Initial residual = 0.000432415921396, Final residual = 3.67503048855e-05, No Iterations 4
smoothSolver:  Solving for Uy, Initial residual = 0.00214345061432, Final residual = 0.000186485031857, No Iterations 4
smoothSolver:  Solving for Uz, Initial residual = 0.000503080742021, Final residual = 4.18276518837e-05, No Iterations 4
GAMG:  Solving for p, Initial residual = 0.00949080165166, Final residual = 0.00018584131109, No Iterations 4
time step continuity errors : sum local = 0.000275812046058, global = 2.40501849148e-06, cumulative = 0.0178279353906
ExecutionTime = 3.8 s  ClockTime = 4 s

Time = 51

smoothSolver:  Solving for Ux, Initial residual = 0.000431882855879, Final residual = 3.67572133723e-05, No Iterations 4
smoothSolver:  Solving for Uy, Initial residual = 0.00210616287219, Final residual = 0.00018338660549, No Iterations 4
smoothSolver:  Solving for Uz, Initial residual = 0.000493619509919, Final residual = 4.10853278138e-05, No Iterations 4
GAMG:  Solving for p, Initial residual = 0.00881267335848, Final residual = 0.000179134845169, No Iterations 4
time step continuity errors : sum local = 0.000261713775791, global = 7.00842747867e-07, cumulative = 0.0178286362333
ExecutionTime = 3.89 s  ClockTime = 4 s

Time = 52

smoothSolver:  Solving for Ux, Initial residual = 0.000431853647895, Final residual = 3.68010179355e-05, No Iterations 4
smoothSolver:  Solving for Uy, Initial residual = 0.00207032118853, Final residual = 0.000180365177117, No Iterations 4
smoothSolver:  Solving for Uz, Initial residual = 0.000484654353745, Final residual = 4.0375472329e-05, No Iterations 4
GAMG:  Solving for p, Initial residual = 0.00822057617018, Final residual = 0.000235237873938, No Iterations 4
time step continuity errors : sum local = 0.000338795505931, global = 1.78880404412e-06, cumulative = 0.0178304250374
ExecutionTime = 3.95 s  ClockTime = 4 s

Time = 53

smoothSolver:  Solving for Ux, Initial residual = 0.000432299193738, Final residual = 3.68687927834e-05, No Iterations 4
smoothSolver:  Solving for Uy, Initial residual = 0.00203427189552, Final residual = 0.000177326399452, No Iterations 4
smoothSolver:  Solving for Uz, Initial residual = 0.000475852996119, Final residual = 3.96768997729e-05, No Iterations 4
GAMG:  Solving for p, Initial residual = 0.00768721505738, Final residual = 0.000239780172087, No Iterations 4
time step continuity errors : sum local = 0.000340785347688, global = 1.19347648714e-06, cumulative = 0.0178316185139
ExecutionTime = 4.02 s  ClockTime = 4 s

Time = 54

smoothSolver:  Solving for Ux, Initial residual = 0.000431590948935, Final residual = 3.68394119464e-05, No Iterations 4
smoothSolver:  Solving for Uy, Initial residual = 0.00199862391274, Final residual = 0.000174309263133, No Iterations 4
smoothSolver:  Solving for Uz, Initial residual = 0.000467085514989, Final residual = 3.89881212699e-05, No Iterations 4
GAMG:  Solving for p, Initial residual = 0.00718471000083, Final residual = 0.000191440413233, No Iterations 4
time step continuity errors : sum local = 0.000268685276785, global = 1.61586931978e-08, cumulative = 0.0178316346726
ExecutionTime = 4.09 s  ClockTime = 4 s

Time = 55

smoothSolver:  Solving for Ux, Initial residual = 0.000431218724639, Final residual = 3.6847381651e-05, No Iterations 4
smoothSolver:  Solving for Uy, Initial residual = 0.00196378780163, Final residual = 0.000171463325571, No Iterations 4
smoothSolver:  Solving for Uz, Initial residual = 0.000458672901218, Final residual = 3.83240647838e-05, No Iterations 4
GAMG:  Solving for p, Initial residual = 0.00669794115568, Final residual = 0.00016468900067, No Iterations 4
time step continuity errors : sum local = 0.000228284074438, global = -1.36316463563e-06, cumulative = 0.0178302715079
ExecutionTime = 4.16 s  ClockTime = 4 s

Time = 56

smoothSolver:  Solving for Ux, Initial residual = 0.000431757484655, Final residual = 3.69135718003e-05, No Iterations 4
smoothSolver:  Solving for Uy, Initial residual = 0.00193149173909, Final residual = 0.000168735922136, No Iterations 4
smoothSolver:  Solving for Uz, Initial residual = 0.000450648621953, Final residual = 3.76916332761e-05, No Iterations 4
GAMG:  Solving for p, Initial residual = 0.00624763016745, Final residual = 0.000271318580946, No Iterations 3
time step continuity errors : sum local = 0.000371713255327, global = 5.43797957572e-06, cumulative = 0.0178357094875
ExecutionTime = 4.25 s  ClockTime = 4 s

Time = 57

smoothSolver:  Solving for Ux, Initial residual = 0.000430639513377, Final residual = 3.68543830245e-05, No Iterations 4
smoothSolver:  Solving for Uy, Initial residual = 0.00189935958235, Final residual = 0.000166003709565, No Iterations 4
smoothSolver:  Solving for Uz, Initial residual = 0.00044281558658, Final residual = 3.70714443781e-05, No Iterations 4
GAMG:  Solving for p, Initial residual = 0.00585996855904, Final residual = 0.000132359983631, No Iterations 4
time step continuity errors : sum local = 0.000179407002661, global = -1.05985474141e-06, cumulative = 0.0178346496328
ExecutionTime = 4.32 s  ClockTime = 4 s

Time = 58

smoothSolver:  Solving for Ux, Initial residual = 0.000430071504355, Final residual = 3.68409334783e-05, No Iterations 4
smoothSolver:  Solving for Uy, Initial residual = 0.00186903162026, Final residual = 0.000163408295926, No Iterations 4
smoothSolver:  Solving for Uz, Initial residual = 0.000435220266512, Final residual = 3.64666221201e-05, No Iterations 4
GAMG:  Solving for p, Initial residual = 0.00549833293807, Final residual = 0.000146987776803, No Iterations 4
time step continuity errors : sum local = 0.00019708716879, global = -1.98808505086e-06, cumulative = 0.0178326615477
ExecutionTime = 4.39 s  ClockTime = 4 s

Time = 59

smoothSolver:  Solving for Ux, Initial residual = 0.000430411174138, Final residual = 3.68877931086e-05, No Iterations 4
smoothSolver:  Solving for Uy, Initial residual = 0.00183924106486, Final residual = 0.000160838684135, No Iterations 4
smoothSolver:  Solving for Uz, Initial residual = 0.000427877664889, Final residual = 3.58790616342e-05, No Iterations 4
GAMG:  Solving for p, Initial residual = 0.00517144063205, Final residual = 0.000145688947447, No Iterations 4
time step continuity errors : sum local = 0.000193327033368, global = -2.86589931563e-06, cumulative = 0.0178297956484
ExecutionTime = 4.46 s  ClockTime = 4 s

Time = 60

smoothSolver:  Solving for Ux, Initial residual = 0.000429131858652, Final residual = 3.68254713886e-05, No Iterations 4
smoothSolver:  Solving for Uy, Initial residual = 0.00180965535012, Final residual = 0.000158291866244, No Iterations 4
smoothSolver:  Solving for Uz, Initial residual = 0.000420640745347, Final residual = 3.52996312282e-05, No Iterations 4
GAMG:  Solving for p, Initial residual = 0.00487058818233, Final residual = 0.000132709884858, No Iterations 4
time step continuity errors : sum local = 0.000174379144874, global = -3.35309035196e-06, cumulative = 0.017826442558
ExecutionTime = 4.53 s  ClockTime = 4 s

Time = 61

smoothSolver:  Solving for Ux, Initial residual = 0.000428646534691, Final residual = 3.6805423716e-05, No Iterations 4
smoothSolver:  Solving for Uy, Initial residual = 0.00178128042012, Final residual = 0.000155838778261, No Iterations 4
smoothSolver:  Solving for Uz, Initial residual = 0.000413692654091, Final residual = 3.47420907071e-05, No Iterations 4
GAMG:  Solving for p, Initial residual = 0.00459884987368, Final residual = 0.000116262560297, No Iterations 4
time step continuity errors : sum local = 0.000151363025894, global = -3.49571070081e-06, cumulative = 0.0178229468473
ExecutionTime = 4.6 s  ClockTime = 4 s

Time = 62

smoothSolver:  Solving for Ux, Initial residual = 0.000429103845563, Final residual = 3.68509425351e-05, No Iterations 4
smoothSolver:  Solving for Uy, Initial residual = 0.00175318550044, Final residual = 0.000153410232609, No Iterations 4
smoothSolver:  Solving for Uz, Initial residual = 0.000406846095688, Final residual = 3.4191669694e-05, No Iterations 4
GAMG:  Solving for p, Initial residual = 0.00435333323693, Final residual = 0.000106243657261, No Iterations 4
time step continuity errors : sum local = 0.000137118138855, global = -3.50894035879e-06, cumulative = 0.017819437907
ExecutionTime = 4.67 s  ClockTime = 5 s

Time = 63

smoothSolver:  Solving for Ux, Initial residual = 0.000427792431817, Final residual = 3.67757594309e-05, No Iterations 4
smoothSolver:  Solving for Uy, Initial residual = 0.00172563845311, Final residual = 0.000151020422291, No Iterations 4
smoothSolver:  Solving for Uz, Initial residual = 0.000400206040027, Final residual = 3.36536547597e-05, No Iterations 4
GAMG:  Solving for p, Initial residual = 0.00412765770059, Final residual = 0.00010695052582, No Iterations 4
time step continuity errors : sum local = 0.000136890200467, global = -3.32004047159e-06, cumulative = 0.0178161178665
ExecutionTime = 4.74 s  ClockTime = 5 s

Time = 64

smoothSolver:  Solving for Ux, Initial residual = 0.000427185550465, Final residual = 3.67508185447e-05, No Iterations 4
smoothSolver:  Solving for Uy, Initial residual = 0.00169859950078, Final residual = 0.000148680857147, No Iterations 4
smoothSolver:  Solving for Uz, Initial residual = 0.000393752378967, Final residual = 3.31307298058e-05, No Iterations 4
GAMG:  Solving for p, Initial residual = 0.00391856960111, Final residual = 0.000109662182773, No Iterations 4
time step continuity errors : sum local = 0.000139243868241, global = -3.2541433667e-06, cumulative = 0.0178128637232
ExecutionTime = 4.81 s  ClockTime = 5 s

Time = 65

smoothSolver:  Solving for Ux, Initial residual = 0.000428007853202, Final residual = 3.68108048061e-05, No Iterations 4
smoothSolver:  Solving for Uy, Initial residual = 0.00167176499947, Final residual = 0.000146358213568, No Iterations 4
smoothSolver:  Solving for Uz, Initial residual = 0.000387376621979, Final residual = 3.26124102886e-05, No Iterations 4
GAMG:  Solving for p, Initial residual = 0.0037283852676, Final residual = 0.000107051388335, No Iterations 4
time step continuity errors : sum local = 0.00013488281638, global = -3.29288524622e-06, cumulative = 0.0178095708379
ExecutionTime = 4.89 s  ClockTime = 5 s

Time = 66

smoothSolver:  Solving for Ux, Initial residual = 0.000426614077937, Final residual = 3.66855989e-05, No Iterations 4
smoothSolver:  Solving for Uy, Initial residual = 0.00164588443244, Final residual = 0.000144123042291, No Iterations 4
smoothSolver:  Solving for Uz, Initial residual = 0.000381265901692, Final residual = 3.21161584005e-05, No Iterations 4
GAMG:  Solving for p, Initial residual = 0.00355557909533, Final residual = 0.00010030993026, No Iterations 4
time step continuity errors : sum local = 0.000125447886101, global = -3.33524744923e-06, cumulative = 0.0178062355905
ExecutionTime = 4.96 s  ClockTime = 5 s

Time = 67

smoothSolver:  Solving for Ux, Initial residual = 0.000425613315768, Final residual = 3.66542681403e-05, No Iterations 4
smoothSolver:  Solving for Uy, Initial residual = 0.00161996157776, Final residual = 0.000141882054431, No Iterations 4
smoothSolver:  Solving for Uz, Initial residual = 0.000375150401424, Final residual = 3.161856731e-05, No Iterations 4
GAMG:  Solving for p, Initial residual = 0.00339465191503, Final residual = 9.3221388167e-05, No Iterations 4
time step continuity errors : sum local = 0.000115744381765, global = -3.37271370856e-06, cumulative = 0.0178028628767
ExecutionTime = 5.04 s  ClockTime = 5 s

Time = 68

smoothSolver:  Solving for Ux, Initial residual = 0.000425313629282, Final residual = 3.66677830581e-05, No Iterations 4
smoothSolver:  Solving for Uy, Initial residual = 0.00159529341865, Final residual = 0.000139754799121, No Iterations 4
smoothSolver:  Solving for Uz, Initial residual = 0.000369382969961, Final residual = 3.11510442679e-05, No Iterations 4
GAMG:  Solving for p, Initial residual = 0.00324449365526, Final residual = 8.98136703911e-05, No Iterations 4
time step continuity errors : sum local = 0.000110737885587, global = -3.44079499436e-06, cumulative = 0.0177994220818
ExecutionTime = 5.13 s  ClockTime = 5 s

Time = 69

smoothSolver:  Solving for Ux, Initial residual = 0.000424532584827, Final residual = 3.65943108768e-05, No Iterations 4
smoothSolver:  Solving for Uy, Initial residual = 0.00157055205886, Final residual = 0.000137621630756, No Iterations 4
smoothSolver:  Solving for Uz, Initial residual = 0.000363594552756, Final residual = 3.06824763566e-05, No Iterations 4
GAMG:  Solving for p, Initial residual = 0.00310569718206, Final residual = 9.05596298781e-05, No Iterations 4
time step continuity errors : sum local = 0.000110907861862, global = -3.56814539843e-06, cumulative = 0.0177958539364
ExecutionTime = 5.19 s  ClockTime = 5 s

Time = 70

smoothSolver:  Solving for Ux, Initial residual = 0.000424702997448, Final residual = 3.66219723275e-05, No Iterations 4
smoothSolver:  Solving for Uy, Initial residual = 0.00154688026143, Final residual = 0.000135583991141, No Iterations 4
smoothSolver:  Solving for Uz, Initial residual = 0.000358092132958, Final residual = 3.02373479466e-05, No Iterations 4
GAMG:  Solving for p, Initial residual = 0.00297849203922, Final residual = 9.27812202e-05, No Iterations 4
time step continuity errors : sum local = 0.000112892576133, global = -3.70919715768e-06, cumulative = 0.0177921447392
ExecutionTime = 5.26 s  ClockTime = 5 s

Time = 71

smoothSolver:  Solving for Ux, Initial residual = 0.000423329203733, Final residual = 3.65255719391e-05, No Iterations 4
smoothSolver:  Solving for Uy, Initial residual = 0.00152344135617, Final residual = 0.000133576495556, No Iterations 4
smoothSolver:  Solving for Uz, Initial residual = 0.000352645543578, Final residual = 2.97984848739e-05, No Iterations 4
GAMG:  Solving for p, Initial residual = 0.00286013875353, Final residual = 9.55108925864e-05, No Iterations 4
time step continuity errors : sum local = 0.000115489681944, global = -3.78415312023e-06, cumulative = 0.0177883605861
ExecutionTime = 5.33 s  ClockTime = 5 s

Time = 72

smoothSolver:  Solving for Ux, Initial residual = 0.000422957235582, Final residual = 3.650457852e-05, No Iterations 4
smoothSolver:  Solving for Uy, Initial residual = 0.0015006579797, Final residual = 0.000131620624655, No Iterations 4
smoothSolver:  Solving for Uz, Initial residual = 0.000347357148226, Final residual = 2.93698076432e-05, No Iterations 4
GAMG:  Solving for p, Initial residual = 0.0027481427922, Final residual = 9.30440195383e-05, No Iterations 4
time step continuity errors : sum local = 0.000111830738359, global = -3.68222166505e-06, cumulative = 0.0177846783644
ExecutionTime = 5.4 s  ClockTime = 5 s

Time = 73

smoothSolver:  Solving for Ux, Initial residual = 0.000422072790956, Final residual = 3.64553108263e-05, No Iterations 4
smoothSolver:  Solving for Uy, Initial residual = 0.00147842310685, Final residual = 0.000129701781898, No Iterations 4
smoothSolver:  Solving for Uz, Initial residual = 0.00034220434241, Final residual = 2.89494906511e-05, No Iterations 4
GAMG:  Solving for p, Initial residual = 0.00264036838429, Final residual = 8.7930417338e-05, No Iterations 4
time step continuity errors : sum local = 0.000105066299784, global = -3.36237066919e-06, cumulative = 0.0177813159937
ExecutionTime = 5.48 s  ClockTime = 5 s

Time = 74

smoothSolver:  Solving for Ux, Initial residual = 0.000421514920062, Final residual = 3.6400178525e-05, No Iterations 4
smoothSolver:  Solving for Uy, Initial residual = 0.00145666853632, Final residual = 0.000127808895511, No Iterations 4
smoothSolver:  Solving for Uz, Initial residual = 0.000337155939461, Final residual = 2.85347806921e-05, No Iterations 4
GAMG:  Solving for p, Initial residual = 0.00253830370516, Final residual = 8.38910421835e-05, No Iterations 4
time step continuity errors : sum local = 9.9661484685e-05, global = -3.11830863612e-06, cumulative = 0.0177781976851
ExecutionTime = 5.56 s  ClockTime = 5 s

Time = 75

smoothSolver:  Solving for Ux, Initial residual = 0.00042075665312, Final residual = 3.63349355759e-05, No Iterations 4
smoothSolver:  Solving for Uy, Initial residual = 0.0014353610353, Final residual = 0.000125950263417, No Iterations 4
smoothSolver:  Solving for Uz, Initial residual = 0.000332204932155, Final residual = 2.81269614396e-05, No Iterations 4
GAMG:  Solving for p, Initial residual = 0.00243851738531, Final residual = 7.9899929303e-05, No Iterations 4
time step continuity errors : sum local = 9.43805693991e-05, global = -3.00504756981e-06, cumulative = 0.0177751926375
ExecutionTime = 5.65 s  ClockTime = 5 s

Time = 76

smoothSolver:  Solving for Ux, Initial residual = 0.000420050640474, Final residual = 3.6270420517e-05, No Iterations 4
smoothSolver:  Solving for Uy, Initial residual = 0.00141455312467, Final residual = 0.000124133027597, No Iterations 4
smoothSolver:  Solving for Uz, Initial residual = 0.000327386204982, Final residual = 2.77292540974e-05, No Iterations 4
GAMG:  Solving for p, Initial residual = 0.00234438778554, Final residual = 7.69834661561e-05, No Iterations 4
time step continuity errors : sum local = 9.04269158749e-05, global = -2.96121979695e-06, cumulative = 0.0177722314177
ExecutionTime = 5.72 s  ClockTime = 6 s

Time = 77

smoothSolver:  Solving for Ux, Initial residual = 0.000418897201766, Final residual = 3.6164243021e-05, No Iterations 4
smoothSolver:  Solving for Uy, Initial residual = 0.00139377448339, Final residual = 0.000122331346635, No Iterations 4
smoothSolver:  Solving for Uz, Initial residual = 0.000322629615199, Final residual = 2.73366363105e-05, No Iterations 4
GAMG:  Solving for p, Initial residual = 0.00225767417842, Final residual = 7.48807041405e-05, No Iterations 4
time step continuity errors : sum local = 8.7473020094e-05, global = -2.92653489881e-06, cumulative = 0.0177693048828
ExecutionTime = 5.78 s  ClockTime = 6 s

Time = 78

smoothSolver:  Solving for Ux, Initial residual = 0.000417301135296, Final residual = 3.60413367885e-05, No Iterations 4
smoothSolver:  Solving for Uy, Initial residual = 0.00137385493753, Final residual = 0.000120600907512, No Iterations 4
smoothSolver:  Solving for Uz, Initial residual = 0.000318091377889, Final residual = 2.69624161933e-05, No Iterations 4
GAMG:  Solving for p, Initial residual = 0.00218143562476, Final residual = 7.34570813938e-05, No Iterations 4
time step continuity errors : sum local = 8.53471064851e-05, global = -2.88442587046e-06, cumulative = 0.017766420457
ExecutionTime = 5.86 s  ClockTime = 6 s

Time = 79

smoothSolver:  Solving for Ux, Initial residual = 0.00041514700764, Final residual = 3.58747657637e-05, No Iterations 4
smoothSolver:  Solving for Uy, Initial residual = 0.00135368133498, Final residual = 0.000118855561033, No Iterations 4
smoothSolver:  Solving for Uz, Initial residual = 0.000313516058386, Final residual = 2.65857111214e-05, No Iterations 4
GAMG:  Solving for p, Initial residual = 0.00211112573923, Final residual = 7.34772630842e-05, No Iterations 4
time step continuity errors : sum local = 8.49206125493e-05, global = -2.85036694931e-06, cumulative = 0.01776357009
ExecutionTime = 5.93 s  ClockTime = 6 s

Time = 80

smoothSolver:  Solving for Ux, Initial residual = 0.000412358880222, Final residual = 3.57006614512e-05, No Iterations 4
smoothSolver:  Solving for Uy, Initial residual = 0.00133470561796, Final residual = 0.000117210566245, No Iterations 4
smoothSolver:  Solving for Uz, Initial residual = 0.000309227175982, Final residual = 2.62356016032e-05, No Iterations 4
GAMG:  Solving for p, Initial residual = 0.00204126891606, Final residual = 7.53274743644e-05, No Iterations 4
time step continuity errors : sum local = 8.66113973771e-05, global = -2.82207300625e-06, cumulative = 0.017760748017
ExecutionTime = 6 s  ClockTime = 6 s

Time = 81

smoothSolver:  Solving for Ux, Initial residual = 0.000409930560788, Final residual = 3.55288342834e-05, No Iterations 4
smoothSolver:  Solving for Uy, Initial residual = 0.00131545835189, Final residual = 0.000115546161395, No Iterations 4
smoothSolver:  Solving for Uz, Initial residual = 0.000304900891483, Final residual = 2.58831410509e-05, No Iterations 4
GAMG:  Solving for p, Initial residual = 0.00197395087351, Final residual = 7.91885268112e-05, No Iterations 4
time step continuity errors : sum local = 9.05956898713e-05, global = -2.77344359997e-06, cumulative = 0.0177579745734
ExecutionTime = 6.08 s  ClockTime = 6 s

Time = 82

smoothSolver:  Solving for Ux, Initial residual = 0.000407793564141, Final residual = 3.53772180274e-05, No Iterations 4
smoothSolver:  Solving for Uy, Initial residual = 0.0012968418073, Final residual = 0.00011393815233, No Iterations 4
smoothSolver:  Solving for Uz, Initial residual = 0.000300750239205, Final residual = 2.55466665413e-05, No Iterations 4
GAMG:  Solving for p, Initial residual = 0.00191098524836, Final residual = 8.32649278143e-05, No Iterations 4
time step continuity errors : sum local = 9.47963982933e-05, global = -2.50290825589e-06, cumulative = 0.0177554716652
ExecutionTime = 6.16 s  ClockTime = 6 s

Time = 83

smoothSolver:  Solving for Ux, Initial residual = 0.000405886598235, Final residual = 3.52350812072e-05, No Iterations 4
smoothSolver:  Solving for Uy, Initial residual = 0.00127833486086, Final residual = 0.000112328033922, No Iterations 4
smoothSolver:  Solving for Uz, Initial residual = 0.000296632426812, Final residual = 2.52062228523e-05, No Iterations 4
GAMG:  Solving for p, Initial residual = 0.00185024690301, Final residual = 7.92868522098e-05, No Iterations 4
time step continuity errors : sum local = 8.9838767895e-05, global = -2.29435183657e-06, cumulative = 0.0177531773133
ExecutionTime = 6.23 s  ClockTime = 6 s

Time = 84

smoothSolver:  Solving for Ux, Initial residual = 0.000404454328621, Final residual = 3.51191305468e-05, No Iterations 4
smoothSolver:  Solving for Uy, Initial residual = 0.00126026742634, Final residual = 0.000110751859035, No Iterations 4
smoothSolver:  Solving for Uz, Initial residual = 0.0002926273589, Final residual = 2.48697892826e-05, No Iterations 4
GAMG:  Solving for p, Initial residual = 0.00178800400034, Final residual = 7.05453940839e-05, No Iterations 4
time step continuity errors : sum local = 7.95561797964e-05, global = -2.33440067084e-06, cumulative = 0.0177508429127
ExecutionTime = 6.3 s  ClockTime = 6 s

Time = 85

smoothSolver:  Solving for Ux, Initial residual = 0.000403473952861, Final residual = 3.50277297654e-05, No Iterations 4
smoothSolver:  Solving for Uy, Initial residual = 0.00124232036415, Final residual = 0.000109184668331, No Iterations 4
smoothSolver:  Solving for Uz, Initial residual = 0.00028869881455, Final residual = 2.45374454632e-05, No Iterations 4
GAMG:  Solving for p, Initial residual = 0.00172524694489, Final residual = 6.81605580717e-05, No Iterations 4
time step continuity errors : sum local = 7.65020710502e-05, global = -2.22643863002e-06, cumulative = 0.017748616474
ExecutionTime = 6.37 s  ClockTime = 6 s

Time = 86

smoothSolver:  Solving for Ux, Initial residual = 0.000402318878836, Final residual = 3.49262535524e-05, No Iterations 4
smoothSolver:  Solving for Uy, Initial residual = 0.00122486989621, Final residual = 0.000107664498285, No Iterations 4
smoothSolver:  Solving for Uz, Initial residual = 0.00028487016328, Final residual = 2.42150104408e-05, No Iterations 4
GAMG:  Solving for p, Initial residual = 0.00166847080079, Final residual = 6.59580517282e-05, No Iterations 4
time step continuity errors : sum local = 7.36791504186e-05, global = -2.07586800025e-06, cumulative = 0.017746540606
ExecutionTime = 6.45 s  ClockTime = 6 s

Time = 87

smoothSolver:  Solving for Ux, Initial residual = 0.000401275165537, Final residual = 3.48175069042e-05, No Iterations 4
smoothSolver:  Solving for Uy, Initial residual = 0.00120779468615, Final residual = 0.000106174336858, No Iterations 4
smoothSolver:  Solving for Uz, Initial residual = 0.000281077860604, Final residual = 2.38968786717e-05, No Iterations 4
GAMG:  Solving for p, Initial residual = 0.00162000533839, Final residual = 6.49140072937e-05, No Iterations 4
time step continuity errors : sum local = 7.21728559838e-05, global = -1.99088485308e-06, cumulative = 0.0177445497212
ExecutionTime = 6.52 s  ClockTime = 6 s

Time = 88

smoothSolver:  Solving for Ux, Initial residual = 0.000400476968866, Final residual = 3.47331874661e-05, No Iterations 4
smoothSolver:  Solving for Uy, Initial residual = 0.00119113905961, Final residual = 0.000104731665171, No Iterations 4
smoothSolver:  Solving for Uz, Initial residual = 0.000277377188443, Final residual = 2.35906138565e-05, No Iterations 4
GAMG:  Solving for p, Initial residual = 0.00157610328936, Final residual = 6.63927649028e-05, No Iterations 4
time step continuity errors : sum local = 7.34794304206e-05, global = -1.87994463873e-06, cumulative = 0.0177426697765
ExecutionTime = 6.59 s  ClockTime = 6 s

Time = 89

smoothSolver:  Solving for Ux, Initial residual = 0.000399874215871, Final residual = 3.46690860544e-05, No Iterations 4
smoothSolver:  Solving for Uy, Initial residual = 0.00117460229368, Final residual = 0.000103306198315, No Iterations 4
smoothSolver:  Solving for Uz, Initial residual = 0.000273734516867, Final residual = 2.32913987402e-05, No Iterations 4
GAMG:  Solving for p, Initial residual = 0.00153135926965, Final residual = 6.9281967537e-05, No Iterations 4
time step continuity errors : sum local = 7.63379621473e-05, global = -1.74178376859e-06, cumulative = 0.0177409279928
ExecutionTime = 6.68 s  ClockTime = 7 s

Time = 90

smoothSolver:  Solving for Ux, Initial residual = 0.000399122210147, Final residual = 3.4598102927e-05, No Iterations 4
smoothSolver:  Solving for Uy, Initial residual = 0.00115835297968, Final residual = 0.000101910483442, No Iterations 4
smoothSolver:  Solving for Uz, Initial residual = 0.000270197846799, Final residual = 2.30040524874e-05, No Iterations 4
GAMG:  Solving for p, Initial residual = 0.00148527716289, Final residual = 2.99399524484e-05, No Iterations 5
time step continuity errors : sum local = 3.28479913056e-05, global = 8.34026819064e-07, cumulative = 0.0177417620196
ExecutionTime = 6.75 s  ClockTime = 7 s

Time = 91

smoothSolver:  Solving for Ux, Initial residual = 0.000397900610037, Final residual = 3.44955565418e-05, No Iterations 4
smoothSolver:  Solving for Uy, Initial residual = 0.00114191804201, Final residual = 0.000100480003429, No Iterations 4
smoothSolver:  Solving for Uz, Initial residual = 0.000266677225964, Final residual = 2.27104690634e-05, No Iterations 4
GAMG:  Solving for p, Initial residual = 0.00144085950707, Final residual = 7.15890795327e-05, No Iterations 4
time step continuity errors : sum local = 7.8214785084e-05, global = -1.10217910133e-06, cumulative = 0.0177406598405
ExecutionTime = 6.81 s  ClockTime = 7 s

Time = 92

smoothSolver:  Solving for Ux, Initial residual = 0.00039710869753, Final residual = 3.44158748776e-05, No Iterations 4
smoothSolver:  Solving for Uy, Initial residual = 0.00112668296968, Final residual = 9.91391080789e-05, No Iterations 4
smoothSolver:  Solving for Uz, Initial residual = 0.0002632986622, Final residual = 2.24199173097e-05, No Iterations 4
GAMG:  Solving for p, Initial residual = 0.00139419622675, Final residual = 6.32686877109e-05, No Iterations 4
time step continuity errors : sum local = 6.88344939971e-05, global = -1.38947165262e-06, cumulative = 0.0177392703688
ExecutionTime = 6.89 s  ClockTime = 7 s

Time = 93

smoothSolver:  Solving for Ux, Initial residual = 0.000396882176271, Final residual = 3.43457810127e-05, No Iterations 4
smoothSolver:  Solving for Uy, Initial residual = 0.00111078282237, Final residual = 9.77425143029e-05, No Iterations 4
smoothSolver:  Solving for Uz, Initial residual = 0.000259852627364, Final residual = 2.21237207831e-05, No Iterations 4
GAMG:  Solving for p, Initial residual = 0.00135047570615, Final residual = 6.10852537827e-05, No Iterations 4
time step continuity errors : sum local = 6.617403135e-05, global = -1.46956174385e-06, cumulative = 0.0177378008071
ExecutionTime = 6.96 s  ClockTime = 7 s

Time = 94

smoothSolver:  Solving for Ux, Initial residual = 0.000396364950906, Final residual = 3.43037735992e-05, No Iterations 4
smoothSolver:  Solving for Uy, Initial residual = 0.001095796187, Final residual = 9.64391611894e-05, No Iterations 4
smoothSolver:  Solving for Uz, Initial residual = 0.000256616739651, Final residual = 2.18489542094e-05, No Iterations 4
GAMG:  Solving for p, Initial residual = 0.00131412861458, Final residual = 6.05742925048e-05, No Iterations 4
time step continuity errors : sum local = 6.53368743397e-05, global = -1.41778671141e-06, cumulative = 0.0177363830204
ExecutionTime = 7.03 s  ClockTime = 7 s

Time = 95

smoothSolver:  Solving for Ux, Initial residual = 0.000395661191357, Final residual = 3.42124349304e-05, No Iterations 4
smoothSolver:  Solving for Uy, Initial residual = 0.00108087234296, Final residual = 9.51448438059e-05, No Iterations 4
smoothSolver:  Solving for Uz, Initial residual = 0.000253349377058, Final residual = 2.15753625693e-05, No Iterations 4
GAMG:  Solving for p, Initial residual = 0.00128392509314, Final residual = 6.06555422578e-05, No Iterations 4
time step continuity errors : sum local = 6.51474467941e-05, global = -1.41398425514e-06, cumulative = 0.0177349690361
ExecutionTime = 7.11 s  ClockTime = 7 s

Time = 96

smoothSolver:  Solving for Ux, Initial residual = 0.000395143119847, Final residual = 3.41305766594e-05, No Iterations 4
smoothSolver:  Solving for Uy, Initial residual = 0.00106619043044, Final residual = 9.38683311363e-05, No Iterations 4
smoothSolver:  Solving for Uz, Initial residual = 0.000250120595897, Final residual = 2.1307742284e-05, No Iterations 4
GAMG:  Solving for p, Initial residual = 0.00125061456513, Final residual = 6.15862543527e-05, No Iterations 4
time step continuity errors : sum local = 6.58756120103e-05, global = -1.35609819204e-06, cumulative = 0.0177336129379
ExecutionTime = 7.18 s  ClockTime = 7 s

Time = 97

smoothSolver:  Solving for Ux, Initial residual = 0.000394530117174, Final residual = 3.40733608813e-05, No Iterations 4
smoothSolver:  Solving for Uy, Initial residual = 0.00105184040908, Final residual = 9.26332176258e-05, No Iterations 4
smoothSolver:  Solving for Uz, Initial residual = 0.000247009361646, Final residual = 2.1054300318e-05, No Iterations 4
GAMG:  Solving for p, Initial residual = 0.00121498099148, Final residual = 3.0403320952e-05, No Iterations 5
time step continuity errors : sum local = 3.23920776514e-05, global = 8.60066633588e-07, cumulative = 0.0177344730046
ExecutionTime = 7.26 s  ClockTime = 7 s

Time = 98

smoothSolver:  Solving for Ux, Initial residual = 0.000393622406945, Final residual = 3.40233895471e-05, No Iterations 4
smoothSolver:  Solving for Uy, Initial residual = 0.00103729068253, Final residual = 9.13590385429e-05, No Iterations 4
smoothSolver:  Solving for Uz, Initial residual = 0.000243947070321, Final residual = 2.07903717631e-05, No Iterations 4
GAMG:  Solving for p, Initial residual = 0.00117683327914, Final residual = 5.83998506667e-05, No Iterations 4
time step continuity errors : sum local = 6.19802562173e-05, global = -1.18254205863e-06, cumulative = 0.0177332904625
ExecutionTime = 7.33 s  ClockTime = 7 s

Time = 99

smoothSolver:  Solving for Ux, Initial residual = 0.000393527657731, Final residual = 3.39501787513e-05, No Iterations 4
smoothSolver:  Solving for Uy, Initial residual = 0.00102339469188, Final residual = 9.01283717228e-05, No Iterations 4
smoothSolver:  Solving for Uz, Initial residual = 0.000240874303898, Final residual = 2.05215220355e-05, No Iterations 4
GAMG:  Solving for p, Initial residual = 0.00113738907128, Final residual = 5.32994128447e-05, No Iterations 4
time step continuity errors : sum local = 5.63464722891e-05, global = -1.19911962706e-06, cumulative = 0.0177320913429
ExecutionTime = 7.4 s  ClockTime = 7 s

Time = 100

smoothSolver:  Solving for Ux, Initial residual = 0.000392985118541, Final residual = 3.38841128903e-05, No Iterations 4
smoothSolver:  Solving for Uy, Initial residual = 0.00100979038974, Final residual = 8.89280565584e-05, No Iterations 4
smoothSolver:  Solving for Uz, Initial residual = 0.000237933760017, Final residual = 2.02684287524e-05, No Iterations 4
GAMG:  Solving for p, Initial residual = 0.0011043387465, Final residual = 5.39443120375e-05, No Iterations 4
time step continuity errors : sum local = 5.6799711685e-05, global = -1.34830151547e-06, cumulative = 0.0177307430414
ExecutionTime = 7.48 s  ClockTime = 7 s

Time = 101

smoothSolver:  Solving for Ux, Initial residual = 0.000392479795514, Final residual = 3.38294739833e-05, No Iterations 4
smoothSolver:  Solving for Uy, Initial residual = 0.000996312933735, Final residual = 8.77607725928e-05, No Iterations 4
smoothSolver:  Solving for Uz, Initial residual = 0.000234997509819, Final residual = 2.00220207343e-05, No Iterations 4
GAMG:  Solving for p, Initial residual = 0.00107764088512, Final residual = 2.7099733739e-05, No Iterations 5
time step continuity errors : sum local = 2.84206241245e-05, global = 9.81034585546e-07, cumulative = 0.0177317240759
ExecutionTime = 7.58 s  ClockTime = 7 s

Time = 102

smoothSolver:  Solving for Ux, Initial residual = 0.000392211558275, Final residual = 3.37883976498e-05, No Iterations 4
smoothSolver:  Solving for Uy, Initial residual = 0.000982829257509, Final residual = 8.65955743388e-05, No Iterations 4
smoothSolver:  Solving for Uz, Initial residual = 0.00023209704123, Final residual = 1.97808789408e-05, No Iterations 4
GAMG:  Solving for p, Initial residual = 0.00104813736797, Final residual = 2.53462943329e-05, No Iterations 5
time step continuity errors : sum local = 2.64776449024e-05, global = 7.16082978165e-07, cumulative = 0.0177324401589
ExecutionTime = 7.66 s  ClockTime = 7 s

Time = 103

smoothSolver:  Solving for Ux, Initial residual = 0.000391963070277, Final residual = 3.37489903447e-05, No Iterations 4
smoothSolver:  Solving for Uy, Initial residual = 0.000969695803285, Final residual = 8.54506434258e-05, No Iterations 4
smoothSolver:  Solving for Uz, Initial residual = 0.000229233092531, Final residual = 1.9541829622e-05, No Iterations 4
GAMG:  Solving for p, Initial residual = 0.00102041289601, Final residual = 2.65977249526e-05, No Iterations 5
time step continuity errors : sum local = 2.76814578224e-05, global = 7.73050331788e-07, cumulative = 0.0177332132093
ExecutionTime = 7.73 s  ClockTime = 8 s

Time = 104

smoothSolver:  Solving for Ux, Initial residual = 0.000391143324205, Final residual = 3.37015385904e-05, No Iterations 4
smoothSolver:  Solving for Uy, Initial residual = 0.000956782899109, Final residual = 8.43046252555e-05, No Iterations 4
smoothSolver:  Solving for Uz, Initial residual = 0.00022643358674, Final residual = 1.92919776886e-05, No Iterations 4
GAMG:  Solving for p, Initial residual = 0.000983506156679, Final residual = 2.52643468332e-05, No Iterations 5
time step continuity errors : sum local = 2.61974990772e-05, global = 6.62104172322e-07, cumulative = 0.0177338753134
ExecutionTime = 7.8 s  ClockTime = 8 s

Time = 105

smoothSolver:  Solving for Ux, Initial residual = 0.000390918315584, Final residual = 3.3665040426e-05, No Iterations 4
smoothSolver:  Solving for Uy, Initial residual = 0.000944175425611, Final residual = 8.31907122733e-05, No Iterations 4
smoothSolver:  Solving for Uz, Initial residual = 0.000223678472791, Final residual = 1.905135759e-05, No Iterations 4
GAMG:  Solving for p, Initial residual = 0.000951213271204, Final residual = 2.69361031679e-05, No Iterations 5
time step continuity errors : sum local = 2.78262484398e-05, global = 8.57374047063e-07, cumulative = 0.0177347326875
ExecutionTime = 7.86 s  ClockTime = 8 s

Time = 106

smoothSolver:  Solving for Ux, Initial residual = 0.000391059714905, Final residual = 3.36328970332e-05, No Iterations 4
smoothSolver:  Solving for Uy, Initial residual = 0.000931534761743, Final residual = 8.20804407379e-05, No Iterations 4
smoothSolver:  Solving for Uz, Initial residual = 0.000220892494643, Final residual = 1.88132990833e-05, No Iterations 4
GAMG:  Solving for p, Initial residual = 0.000923360836187, Final residual = 2.49183598328e-05, No Iterations 5
time step continuity errors : sum local = 2.56449128157e-05, global = 8.28308524593e-07, cumulative = 0.017735560996
ExecutionTime = 7.92 s  ClockTime = 8 s

Time = 107

smoothSolver:  Solving for Ux, Initial residual = 0.000390618143794, Final residual = 3.36164468614e-05, No Iterations 4
smoothSolver:  Solving for Uy, Initial residual = 0.000919306834235, Final residual = 8.10247730093e-05, No Iterations 4
smoothSolver:  Solving for Uz, Initial residual = 0.000218237801963, Final residual = 1.85914138574e-05, No Iterations 4
GAMG:  Solving for p, Initial residual = 0.000892783011667, Final residual = 2.2370148859e-05, No Iterations 5
time step continuity errors : sum local = 2.29370894399e-05, global = 5.77627870999e-07, cumulative = 0.0177361386239
ExecutionTime = 7.99 s  ClockTime = 8 s

Time = 108

smoothSolver:  Solving for Ux, Initial residual = 0.000389751205121, Final residual = 3.35992739169e-05, No Iterations 4
smoothSolver:  Solving for Uy, Initial residual = 0.000907443700892, Final residual = 7.99751277894e-05, No Iterations 4
smoothSolver:  Solving for Uz, Initial residual = 0.000215640408531, Final residual = 1.83654626988e-05, No Iterations 4
GAMG:  Solving for p, Initial residual = 0.000862064921335, Final residual = 2.18135896181e-05, No Iterations 5
time step continuity errors : sum local = 2.22854756484e-05, global = 5.07871921566e-07, cumulative = 0.0177366464958
ExecutionTime = 8.06 s  ClockTime = 8 s

Time = 109

smoothSolver:  Solving for Ux, Initial residual = 0.000389785726963, Final residual = 3.35760252406e-05, No Iterations 4
smoothSolver:  Solving for Uy, Initial residual = 0.000895522713274, Final residual = 7.89172862078e-05, No Iterations 4
smoothSolver:  Solving for Uz, Initial residual = 0.000213019351878, Final residual = 1.8132274816e-05, No Iterations 4
GAMG:  Solving for p, Initial residual = 0.000830770905556, Final residual = 2.42385465709e-05, No Iterations 5
time step continuity errors : sum local = 2.46740305665e-05, global = 5.33481454575e-07, cumulative = 0.0177371799772
ExecutionTime = 8.13 s  ClockTime = 8 s

Time = 110

smoothSolver:  Solving for Ux, Initial residual = 0.000390032474008, Final residual = 3.35497480109e-05, No Iterations 4
smoothSolver:  Solving for Uy, Initial residual = 0.00088359556931, Final residual = 7.78685072093e-05, No Iterations 4
smoothSolver:  Solving for Uz, Initial residual = 0.000210388200727, Final residual = 1.79039812237e-05, No Iterations 4
GAMG:  Solving for p, Initial residual = 0.000804933337558, Final residual = 2.29200846101e-05, No Iterations 5
time step continuity errors : sum local = 2.32477114854e-05, global = 5.40556822297e-07, cumulative = 0.0177377205341
ExecutionTime = 8.2 s  ClockTime = 8 s

Time = 111

smoothSolver:  Solving for Ux, Initial residual = 0.000390075378625, Final residual = 3.35358257184e-05, No Iterations 4
smoothSolver:  Solving for Uy, Initial residual = 0.000872119618036, Final residual = 7.68632005118e-05, No Iterations 4
smoothSolver:  Solving for Uz, Initial residual = 0.000207841956881, Final residual = 1.76875289505e-05, No Iterations 4
GAMG:  Solving for p, Initial residual = 0.000776213056745, Final residual = 2.24315716424e-05, No Iterations 5
time step continuity errors : sum local = 2.26708357116e-05, global = 4.97040890063e-07, cumulative = 0.017738217575
ExecutionTime = 8.27 s  ClockTime = 8 s

Time = 112

smoothSolver:  Solving for Ux, Initial residual = 0.000388951727949, Final residual = 3.35212179785e-05, No Iterations 4
smoothSolver:  Solving for Uy, Initial residual = 0.000860802532415, Final residual = 7.58594048867e-05, No Iterations 4
smoothSolver:  Solving for Uz, Initial residual = 0.000205343853565, Final residual = 1.74654015613e-05, No Iterations 4
GAMG:  Solving for p, Initial residual = 0.000746791353204, Final residual = 2.25781308812e-05, No Iterations 5
time step continuity errors : sum local = 2.27387962388e-05, global = 4.87422574791e-07, cumulative = 0.0177387049975
ExecutionTime = 8.34 s  ClockTime = 8 s

Time = 113

smoothSolver:  Solving for Ux, Initial residual = 0.000389361596805, Final residual = 3.34933415814e-05, No Iterations 4
smoothSolver:  Solving for Uy, Initial residual = 0.000849569948893, Final residual = 7.48593270921e-05, No Iterations 4
smoothSolver:  Solving for Uz, Initial residual = 0.000202828086751, Final residual = 1.72413223444e-05, No Iterations 4
GAMG:  Solving for p, Initial residual = 0.000719405566009, Final residual = 2.32720241555e-05, No Iterations 5
time step continuity errors : sum local = 2.33555706498e-05, global = 5.04647705036e-07, cumulative = 0.0177392096452
ExecutionTime = 8.41 s  ClockTime = 8 s

Time = 114

smoothSolver:  Solving for Ux, Initial residual = 0.000389410298301, Final residual = 3.3465364055e-05, No Iterations 4
smoothSolver:  Solving for Uy, Initial residual = 0.000838562195481, Final residual = 7.38903060137e-05, No Iterations 4
smoothSolver:  Solving for Uz, Initial residual = 0.000200358147825, Final residual = 1.70277828905e-05, No Iterations 4
GAMG:  Solving for p, Initial residual = 0.000693580734024, Final residual = 2.24103134432e-05, No Iterations 5
time step continuity errors : sum local = 2.24120696918e-05, global = 5.29786034618e-07, cumulative = 0.0177397394313
ExecutionTime = 8.49 s  ClockTime = 8 s

Time = 115

smoothSolver:  Solving for Ux, Initial residual = 0.000388949563299, Final residual = 3.34319543024e-05, No Iterations 4
smoothSolver:  Solving for Uy, Initial residual = 0.000827551480142, Final residual = 7.2922957305e-05, No Iterations 4
smoothSolver:  Solving for Uz, Initial residual = 0.000197888016476, Final residual = 1.68111942153e-05, No Iterations 4
GAMG:  Solving for p, Initial residual = 0.000665433903893, Final residual = 2.24903172689e-05, No Iterations 5
time step continuity errors : sum local = 2.2414460751e-05, global = 5.16981469948e-07, cumulative = 0.0177402564127
ExecutionTime = 8.56 s  ClockTime = 8 s

Time = 116

smoothSolver:  Solving for Ux, Initial residual = 0.000389012559611, Final residual = 3.34009855854e-05, No Iterations 4
smoothSolver:  Solving for Uy, Initial residual = 0.000817038185219, Final residual = 7.19782293829e-05, No Iterations 4
smoothSolver:  Solving for Uz, Initial residual = 0.000195496713291, Final residual = 1.65964810907e-05, No Iterations 4
GAMG:  Solving for p, Initial residual = 0.000639622007526, Final residual = 2.28290220431e-05, No Iterations 5
time step continuity errors : sum local = 2.26742276912e-05, global = 5.27813270485e-07, cumulative = 0.017740784226
ExecutionTime = 8.62 s  ClockTime = 8 s

Time = 117

smoothSolver:  Solving for Ux, Initial residual = 0.0003887873766, Final residual = 3.33637330299e-05, No Iterations 4
smoothSolver:  Solving for Uy, Initial residual = 0.000806658279193, Final residual = 7.10745263398e-05, No Iterations 4
smoothSolver:  Solving for Uz, Initial residual = 0.000193150883886, Final residual = 1.63966465024e-05, No Iterations 4
GAMG:  Solving for p, Initial residual = 0.000615354711559, Final residual = 2.19908116863e-05, No Iterations 5
time step continuity errors : sum local = 2.17672007867e-05, global = 4.63895810218e-07, cumulative = 0.0177412481218
ExecutionTime = 8.7 s  ClockTime = 9 s

Time = 118

smoothSolver:  Solving for Ux, Initial residual = 0.000388144974407, Final residual = 3.3310633616e-05, No Iterations 4
smoothSolver:  Solving for Uy, Initial residual = 0.000796287941798, Final residual = 7.01493624187e-05, No Iterations 4
smoothSolver:  Solving for Uz, Initial residual = 0.000190788244248, Final residual = 1.6183834672e-05, No Iterations 4
GAMG:  Solving for p, Initial residual = 0.000590379778702, Final residual = 2.23600922815e-05, No Iterations 5
time step continuity errors : sum local = 2.20582188115e-05, global = 4.28071837292e-07, cumulative = 0.0177416761937
ExecutionTime = 8.79 s  ClockTime = 9 s

Time = 119

smoothSolver:  Solving for Ux, Initial residual = 0.000388411115173, Final residual = 3.32669106548e-05, No Iterations 4
smoothSolver:  Solving for Uy, Initial residual = 0.000786227260703, Final residual = 6.92675218765e-05, No Iterations 4
smoothSolver:  Solving for Uz, Initial residual = 0.000188487263847, Final residual = 1.59853949439e-05, No Iterations 4
GAMG:  Solving for p, Initial residual = 0.000568111094421, Final residual = 2.20105172914e-05, No Iterations 5
time step continuity errors : sum local = 2.16404762043e-05, global = 4.07424447697e-07, cumulative = 0.0177420836181
ExecutionTime = 8.86 s  ClockTime = 9 s

Time = 120

smoothSolver:  Solving for Ux, Initial residual = 0.000387744803938, Final residual = 3.31714157602e-05, No Iterations 4
smoothSolver:  Solving for Uy, Initial residual = 0.000776103577486, Final residual = 6.8372461851e-05, No Iterations 4
smoothSolver:  Solving for Uz, Initial residual = 0.000186165249298, Final residual = 1.57786702389e-05, No Iterations 4
GAMG:  Solving for p, Initial residual = 0.000545700730407, Final residual = 2.20203087694e-05, No Iterations 5
time step continuity errors : sum local = 2.1578290378e-05, global = 4.18725370427e-07, cumulative = 0.0177425023435
ExecutionTime = 8.94 s  ClockTime = 9 s

Time = 121

smoothSolver:  Solving for Ux, Initial residual = 0.00038582876414, Final residual = 3.30346220051e-05, No Iterations 4
smoothSolver:  Solving for Uy, Initial residual = 0.000766392656702, Final residual = 6.75336269791e-05, No Iterations 4
smoothSolver:  Solving for Uz, Initial residual = 0.000183940971599, Final residual = 1.55896205479e-05, No Iterations 4
GAMG:  Solving for p, Initial residual = 0.000525800481723, Final residual = 2.16353248102e-05, No Iterations 5
time step continuity errors : sum local = 2.11310847599e-05, global = 4.13768870688e-07, cumulative = 0.0177429161123
ExecutionTime = 9.01 s  ClockTime = 9 s

Time = 122

smoothSolver:  Solving for Ux, Initial residual = 0.000378924903441, Final residual = 3.28479404855e-05, No Iterations 4
smoothSolver:  Solving for Uy, Initial residual = 0.000757836752797, Final residual = 6.68293630001e-05, No Iterations 4
smoothSolver:  Solving for Uz, Initial residual = 0.000181997949876, Final residual = 1.54468082284e-05, No Iterations 4
GAMG:  Solving for p, Initial residual = 0.000507750362384, Final residual = 2.12634408096e-05, No Iterations 5
time step continuity errors : sum local = 2.06997126367e-05, global = 4.21151422349e-07, cumulative = 0.0177433372638
ExecutionTime = 9.08 s  ClockTime = 9 s

Time = 123

smoothSolver:  Solving for Ux, Initial residual = 0.000375130297703, Final residual = 3.27788599591e-05, No Iterations 4
[...]
smoothSolver:  Solving for Uz, Initial residual = 1.83571775933e-05, Final residual = 9.87315634787e-06, No Iterations 1
GAMG:  Solving for p, Initial residual = 2.0704404129e-05, Final residual = 7.61942846597e-07, No Iterations 7
time step continuity errors : sum local = 4.9674775594e-07, global = 2.55450731737e-09, cumulative = 0.0177520058852
ExecutionTime = 39.56 s  ClockTime = 39 s

Time = 527

smoothSolver:  Solving for Ux, Initial residual = 0.00010761289012, Final residual = 9.55039977721e-06, No Iterations 4
smoothSolver:  Solving for Uy, Initial residual = 4.06517167444e-05, Final residual = 6.5682514372e-06, No Iterations 3
smoothSolver:  Solving for Uz, Initial residual = 1.83064288586e-05, Final residual = 9.84606152087e-06, No Iterations 1
GAMG:  Solving for p, Initial residual = 1.85016442349e-05, Final residual = 6.17655897534e-07, No Iterations 7
time step continuity errors : sum local = 4.02638862862e-07, global = 2.89644750221e-09, cumulative = 0.0177520087817
ExecutionTime = 39.64 s  ClockTime = 39 s

Time = 528

smoothSolver:  Solving for Ux, Initial residual = 0.000107338172253, Final residual = 9.52625173955e-06, No Iterations 4
smoothSolver:  Solving for Uy, Initial residual = 4.05655937859e-05, Final residual = 6.5542944264e-06, No Iterations 3
smoothSolver:  Solving for Uz, Initial residual = 1.82556523098e-05, Final residual = 9.81900055806e-06, No Iterations 1
GAMG:  Solving for p, Initial residual = 1.6901951353e-05, Final residual = 5.53920467322e-07, No Iterations 7
time step continuity errors : sum local = 3.61054198707e-07, global = 2.73273423847e-09, cumulative = 0.0177520115144
ExecutionTime = 39.71 s  ClockTime = 40 s

Time = 529

smoothSolver:  Solving for Ux, Initial residual = 0.000107064503828, Final residual = 9.5021853308e-06, No Iterations 4
smoothSolver:  Solving for Uy, Initial residual = 4.04362186903e-05, Final residual = 6.53363139287e-06, No Iterations 3
smoothSolver:  Solving for Uz, Initial residual = 1.82050373419e-05, Final residual = 9.79205772386e-06, No Iterations 1
GAMG:  Solving for p, Initial residual = 1.57141536074e-05, Final residual = 5.07709589875e-07, No Iterations 7
time step continuity errors : sum local = 3.30899864641e-07, global = 2.98225172019e-09, cumulative = 0.0177520144967
ExecutionTime = 39.78 s  ClockTime = 40 s

Time = 530

smoothSolver:  Solving for Ux, Initial residual = 0.000106791899173, Final residual = 9.47819965455e-06, No Iterations 4
smoothSolver:  Solving for Uy, Initial residual = 4.02851183273e-05, Final residual = 6.50963087009e-06, No Iterations 3
smoothSolver:  Solving for Uz, Initial residual = 1.81544135569e-05, Final residual = 9.76512437255e-06, No Iterations 1
GAMG:  Solving for p, Initial residual = 1.49427672814e-05, Final residual = 8.2703243148e-07, No Iterations 5
time step continuity errors : sum local = 5.38964374139e-07, global = 1.67087430045e-08, cumulative = 0.0177520312054
ExecutionTime = 39.86 s  ClockTime = 40 s

Time = 531

smoothSolver:  Solving for Ux, Initial residual = 0.000106520378985, Final residual = 9.45430170581e-06, No Iterations 4
smoothSolver:  Solving for Uy, Initial residual = 4.01211085046e-05, Final residual = 6.48366156902e-06, No Iterations 3
smoothSolver:  Solving for Uz, Initial residual = 1.81034396125e-05, Final residual = 9.73800993387e-06, No Iterations 1
GAMG:  Solving for p, Initial residual = 1.45306115941e-05, Final residual = 9.45702764199e-07, No Iterations 5
time step continuity errors : sum local = 6.16240447019e-07, global = 1.8505237244e-08, cumulative = 0.0177520497106
ExecutionTime = 39.93 s  ClockTime = 40 s

Time = 532

smoothSolver:  Solving for Ux, Initial residual = 0.000106249848137, Final residual = 9.4304822004e-06, No Iterations 4
smoothSolver:  Solving for Uy, Initial residual = 3.99574168657e-05, Final residual = 6.45788278051e-06, No Iterations 3
smoothSolver:  Solving for Uz, Initial residual = 1.80524398376e-05, Final residual = 9.71088362463e-06, No Iterations 1
GAMG:  Solving for p, Initial residual = 1.418607119e-05, Final residual = 5.84141927724e-07, No Iterations 7
time step continuity errors : sum local = 3.80601806464e-07, global = 1.85190014665e-09, cumulative = 0.0177520515625
ExecutionTime = 40 s  ClockTime = 40 s

Time = 533

smoothSolver:  Solving for Ux, Initial residual = 0.0001059802619, Final residual = 9.40673444952e-06, No Iterations 4
smoothSolver:  Solving for Uy, Initial residual = 3.97973670056e-05, Final residual = 6.43282291668e-06, No Iterations 3
smoothSolver:  Solving for Uz, Initial residual = 1.80016782842e-05, Final residual = 9.68388653868e-06, No Iterations 1
GAMG:  Solving for p, Initial residual = 1.39232648645e-05, Final residual = 9.23874237353e-07, No Iterations 5
time step continuity errors : sum local = 6.01893857425e-07, global = 1.82195223452e-08, cumulative = 0.0177520697821
ExecutionTime = 40.08 s  ClockTime = 40 s

Time = 534

smoothSolver:  Solving for Ux, Initial residual = 0.000105711561652, Final residual = 9.38305915274e-06, No Iterations 4
smoothSolver:  Solving for Uy, Initial residual = 3.96180232523e-05, Final residual = 6.40470930979e-06, No Iterations 3
smoothSolver:  Solving for Uz, Initial residual = 1.79505342199e-05, Final residual = 9.65668351023e-06, No Iterations 1
GAMG:  Solving for p, Initial residual = 1.37600937541e-05, Final residual = 5.87220047007e-07, No Iterations 7
time step continuity errors : sum local = 3.82530254297e-07, global = 1.81115672597e-09, cumulative = 0.0177520715932
ExecutionTime = 40.16 s  ClockTime = 40 s

Time = 535

smoothSolver:  Solving for Ux, Initial residual = 0.000105443658453, Final residual = 9.35944872787e-06, No Iterations 4
smoothSolver:  Solving for Uy, Initial residual = 3.9450376799e-05, Final residual = 6.37862690861e-06, No Iterations 3
smoothSolver:  Solving for Uz, Initial residual = 1.78997692369e-05, Final residual = 9.62967212362e-06, No Iterations 1
GAMG:  Solving for p, Initial residual = 1.36131540667e-05, Final residual = 9.2843268327e-07, No Iterations 5
time step continuity errors : sum local = 6.0474317757e-07, global = 1.66806480764e-08, cumulative = 0.0177520882739
ExecutionTime = 40.23 s  ClockTime = 40 s

Time = 536

smoothSolver:  Solving for Ux, Initial residual = 0.000105176580823, Final residual = 9.33590712295e-06, No Iterations 4
smoothSolver:  Solving for Uy, Initial residual = 3.92689676944e-05, Final residual = 6.35037226822e-06, No Iterations 3
smoothSolver:  Solving for Uz, Initial residual = 1.78487372555e-05, Final residual = 9.6025161139e-06, No Iterations 1
GAMG:  Solving for p, Initial residual = 1.34584363865e-05, Final residual = 9.93871508849e-07, No Iterations 5
time step continuity errors : sum local = 6.47305713419e-07, global = 1.92804382434e-08, cumulative = 0.0177521075543
ExecutionTime = 40.3 s  ClockTime = 40 s

Time = 537

smoothSolver:  Solving for Ux, Initial residual = 0.000104910294359, Final residual = 9.31242995144e-06, No Iterations 4
smoothSolver:  Solving for Uy, Initial residual = 3.90976169665e-05, Final residual = 6.32385292893e-06, No Iterations 3
smoothSolver:  Solving for Uz, Initial residual = 1.77978976153e-05, Final residual = 9.57545794848e-06, No Iterations 1
GAMG:  Solving for p, Initial residual = 1.3360867113e-05, Final residual = 5.89844489432e-07, No Iterations 7
time step continuity errors : sum local = 3.84127043337e-07, global = 1.7254887515e-09, cumulative = 0.0177521092798
ExecutionTime = 40.38 s  ClockTime = 40 s

Time = 538

smoothSolver:  Solving for Ux, Initial residual = 0.000104644773806, Final residual = 9.28901719099e-06, No Iterations 4
smoothSolver:  Solving for Uy, Initial residual = 3.89358567158e-05, Final residual = 6.29895596369e-06, No Iterations 3
smoothSolver:  Solving for Uz, Initial residual = 1.77474415122e-05, Final residual = 9.54859947622e-06, No Iterations 1
GAMG:  Solving for p, Initial residual = 1.3259518468e-05, Final residual = 6.16538867982e-07, No Iterations 7
time step continuity errors : sum local = 4.01470792027e-07, global = 2.87284988948e-09, cumulative = 0.0177521121526
ExecutionTime = 40.45 s  ClockTime = 40 s

Time = 539

smoothSolver:  Solving for Ux, Initial residual = 0.00010438000714, Final residual = 9.26566900346e-06, No Iterations 4
smoothSolver:  Solving for Uy, Initial residual = 3.87639148407e-05, Final residual = 6.27242238291e-06, No Iterations 3
smoothSolver:  Solving for Uz, Initial residual = 1.76969545131e-05, Final residual = 9.52172243474e-06, No Iterations 1
GAMG:  Solving for p, Initial residual = 1.31256471553e-05, Final residual = 5.86439871015e-07, No Iterations 7
time step continuity errors : sum local = 3.81834195507e-07, global = 2.67632139337e-09, cumulative = 0.017752114829
ExecutionTime = 40.53 s  ClockTime = 40 s

Time = 540

smoothSolver:  Solving for Ux, Initial residual = 0.000104115958128, Final residual = 9.24237981997e-06, No Iterations 4
smoothSolver:  Solving for Uy, Initial residual = 3.85937805118e-05, Final residual = 6.24624119069e-06, No Iterations 3
smoothSolver:  Solving for Uz, Initial residual = 1.76465490073e-05, Final residual = 9.49488271317e-06, No Iterations 1
GAMG:  Solving for p, Initial residual = 1.30399045688e-05, Final residual = 5.63218792798e-07, No Iterations 7
time step continuity errors : sum local = 3.66679965215e-07, global = 2.76196477436e-09, cumulative = 0.0177521175909
ExecutionTime = 40.6 s  ClockTime = 40 s

Time = 541

smoothSolver:  Solving for Ux, Initial residual = 0.000103852650951, Final residual = 9.21915089273e-06, No Iterations 4
smoothSolver:  Solving for Uy, Initial residual = 3.84276764012e-05, Final residual = 6.22075032974e-06, No Iterations 3
smoothSolver:  Solving for Uz, Initial residual = 1.75962802323e-05, Final residual = 9.46811174743e-06, No Iterations 1
GAMG:  Solving for p, Initial residual = 1.29816378919e-05, Final residual = 9.99955630212e-07, No Iterations 5
time step continuity errors : sum local = 6.50953530474e-07, global = 1.62794568936e-08, cumulative = 0.0177521338704
ExecutionTime = 40.67 s  ClockTime = 41 s

Time = 542

smoothSolver:  Solving for Ux, Initial residual = 0.000103590044007, Final residual = 9.19598045101e-06, No Iterations 4
smoothSolver:  Solving for Uy, Initial residual = 3.82591986912e-05, Final residual = 6.19489333691e-06, No Iterations 3
smoothSolver:  Solving for Uz, Initial residual = 1.75459870086e-05, Final residual = 9.4413243206e-06, No Iterations 1
GAMG:  Solving for p, Initial residual = 1.29210876015e-05, Final residual = 6.21951894828e-07, No Iterations 7
time step continuity errors : sum local = 4.04843087739e-07, global = 3.12234488609e-09, cumulative = 0.0177521369927
ExecutionTime = 40.75 s  ClockTime = 41 s

Time = 543

smoothSolver:  Solving for Ux, Initial residual = 0.000103328098615, Final residual = 9.17286729453e-06, No Iterations 4
smoothSolver:  Solving for Uy, Initial residual = 3.81044550851e-05, Final residual = 6.17128957807e-06, No Iterations 3
smoothSolver:  Solving for Uz, Initial residual = 1.74961977307e-05, Final residual = 9.41479844057e-06, No Iterations 1
GAMG:  Solving for p, Initial residual = 1.28435642054e-05, Final residual = 5.8190555449e-07, No Iterations 7
time step continuity errors : sum local = 3.78739857568e-07, global = 2.81342139006e-09, cumulative = 0.0177521398062
ExecutionTime = 40.82 s  ClockTime = 41 s

Time = 544

smoothSolver:  Solving for Ux, Initial residual = 0.000103066818508, Final residual = 9.14981237728e-06, No Iterations 4
smoothSolver:  Solving for Uy, Initial residual = 3.79426284767e-05, Final residual = 6.14651512505e-06, No Iterations 3
smoothSolver:  Solving for Uz, Initial residual = 1.74465497904e-05, Final residual = 9.38834448098e-06, No Iterations 1
GAMG:  Solving for p, Initial residual = 1.27525959251e-05, Final residual = 5.72053228485e-07, No Iterations 7
time step continuity errors : sum local = 3.72292510732e-07, global = 2.66578289109e-09, cumulative = 0.0177521424719
ExecutionTime = 40.89 s  ClockTime = 41 s

Time = 545

smoothSolver:  Solving for Ux, Initial residual = 0.000102806181723, Final residual = 9.12681318257e-06, No Iterations 4
smoothSolver:  Solving for Uy, Initial residual = 3.77795010577e-05, Final residual = 6.12153459759e-06, No Iterations 3
smoothSolver:  Solving for Uz, Initial residual = 1.73970850067e-05, Final residual = 9.3619831045e-06, No Iterations 1
GAMG:  Solving for p, Initial residual = 1.26740727234e-05, Final residual = 5.71895495596e-07, No Iterations 7
time step continuity errors : sum local = 3.72155492821e-07, global = 2.60697530379e-09, cumulative = 0.0177521450789
ExecutionTime = 40.97 s  ClockTime = 41 s

Time = 546

smoothSolver:  Solving for Ux, Initial residual = 0.000102546202685, Final residual = 9.10386955388e-06, No Iterations 4
smoothSolver:  Solving for Uy, Initial residual = 3.76178728513e-05, Final residual = 6.0968109991e-06, No Iterations 3
smoothSolver:  Solving for Uz, Initial residual = 1.73478219745e-05, Final residual = 9.33572363874e-06, No Iterations 1
GAMG:  Solving for p, Initial residual = 1.26055095002e-05, Final residual = 5.71545620048e-07, No Iterations 7
time step continuity errors : sum local = 3.71893730262e-07, global = 2.59199250005e-09, cumulative = 0.0177521476709
ExecutionTime = 41.04 s  ClockTime = 41 s

Time = 547

smoothSolver:  Solving for Ux, Initial residual = 0.000102286841486, Final residual = 9.08098168364e-06, No Iterations 4
smoothSolver:  Solving for Uy, Initial residual = 3.74582051592e-05, Final residual = 6.07240812552e-06, No Iterations 3
smoothSolver:  Solving for Uz, Initial residual = 1.72987686277e-05, Final residual = 9.30957046381e-06, No Iterations 1
GAMG:  Solving for p, Initial residual = 1.25393790287e-05, Final residual = 5.70163219098e-07, No Iterations 7
time step continuity errors : sum local = 3.70960453389e-07, global = 2.58561480505e-09, cumulative = 0.0177521502565
ExecutionTime = 41.12 s  ClockTime = 41 s

Time = 548

smoothSolver:  Solving for Ux, Initial residual = 0.000102028097428, Final residual = 9.05814782205e-06, No Iterations 4
smoothSolver:  Solving for Uy, Initial residual = 3.73001650672e-05, Final residual = 6.04826202253e-06, No Iterations 3
smoothSolver:  Solving for Uz, Initial residual = 1.72499267339e-05, Final residual = 9.28352529017e-06, No Iterations 1
GAMG:  Solving for p, Initial residual = 1.2470710123e-05, Final residual = 5.68278440042e-07, No Iterations 7
time step continuity errors : sum local = 3.69700717983e-07, global = 2.58269614133e-09, cumulative = 0.0177521528392
ExecutionTime = 41.19 s  ClockTime = 41 s

Time = 549

smoothSolver:  Solving for Ux, Initial residual = 0.000101769986051, Final residual = 9.03536634908e-06, No Iterations 4
smoothSolver:  Solving for Uy, Initial residual = 3.71433927045e-05, Final residual = 6.02431766085e-06, No Iterations 3
smoothSolver:  Solving for Uz, Initial residual = 1.72012978723e-05, Final residual = 9.25759063664e-06, No Iterations 1
GAMG:  Solving for p, Initial residual = 1.23994535416e-05, Final residual = 5.66897938339e-07, No Iterations 7
time step continuity errors : sum local = 3.68769417297e-07, global = 2.57775062102e-09, cumulative = 0.017752155417
ExecutionTime = 41.27 s  ClockTime = 41 s

Time = 550

smoothSolver:  Solving for Ux, Initial residual = 0.000101512494738, Final residual = 9.0126379717e-06, No Iterations 4
smoothSolver:  Solving for Uy, Initial residual = 3.69878025453e-05, Final residual = 6.00055847692e-06, No Iterations 3
smoothSolver:  Solving for Uz, Initial residual = 1.71528879219e-05, Final residual = 9.23176654434e-06, No Iterations 1
GAMG:  Solving for p, Initial residual = 1.23264214208e-05, Final residual = 5.65641758464e-07, No Iterations 7
time step continuity errors : sum local = 3.67919325464e-07, global = 2.57040065408e-09, cumulative = 0.0177521579874
ExecutionTime = 41.35 s  ClockTime = 41 s

Time = 551

smoothSolver:  Solving for Ux, Initial residual = 0.00010125557886, Final residual = 8.98996284416e-06, No Iterations 4
smoothSolver:  Solving for Uy, Initial residual = 3.68333872158e-05, Final residual = 5.97698010039e-06, No Iterations 3
smoothSolver:  Solving for Uz, Initial residual = 1.71046962506e-05, Final residual = 9.20605308106e-06, No Iterations 1
GAMG:  Solving for p, Initial residual = 1.22532807748e-05, Final residual = 5.64158287293e-07, No Iterations 7
time step continuity errors : sum local = 3.66921748425e-07, global = 2.56438367578e-09, cumulative = 0.0177521605517
ExecutionTime = 41.42 s  ClockTime = 41 s

Time = 552

smoothSolver:  Solving for Ux, Initial residual = 0.000100999282664, Final residual = 8.96734105303e-06, No Iterations 4
smoothSolver:  Solving for Uy, Initial residual = 3.66802402924e-05, Final residual = 5.95359375651e-06, No Iterations 3
smoothSolver:  Solving for Uz, Initial residual = 1.70567219393e-05, Final residual = 9.18044988912e-06, No Iterations 1
GAMG:  Solving for p, Initial residual = 1.21806237881e-05, Final residual = 5.62569194386e-07, No Iterations 7
time step continuity errors : sum local = 3.65855856572e-07, global = 2.5572224917e-09, cumulative = 0.017752163109
ExecutionTime = 41.5 s  ClockTime = 41 s

Time = 553

smoothSolver:  Solving for Ux, Initial residual = 0.000100743607147, Final residual = 8.94477335258e-06, No Iterations 4
smoothSolver:  Solving for Uy, Initial residual = 3.65284090932e-05, Final residual = 5.93040749759e-06, No Iterations 3
smoothSolver:  Solving for Uz, Initial residual = 1.70089635897e-05, Final residual = 9.15495786684e-06, No Iterations 1
GAMG:  Solving for p, Initial residual = 1.21078101825e-05, Final residual = 5.60823843376e-07, No Iterations 7
time step continuity errors : sum local = 3.64688719215e-07, global = 2.54985291615e-09, cumulative = 0.0177521656588
ExecutionTime = 41.57 s  ClockTime = 41 s

Time = 554

smoothSolver:  Solving for Ux, Initial residual = 0.000100488518158, Final residual = 8.92225754694e-06, No Iterations 4
smoothSolver:  Solving for Uy, Initial residual = 3.63779075389e-05, Final residual = 5.90742369346e-06, No Iterations 3
smoothSolver:  Solving for Uz, Initial residual = 1.69614207586e-05, Final residual = 9.1295765891e-06, No Iterations 1
GAMG:  Solving for p, Initial residual = 1.20347713159e-05, Final residual = 5.63604847265e-07, No Iterations 7
time step continuity errors : sum local = 3.66465107537e-07, global = 2.58282508252e-09, cumulative = 0.0177521682416
ExecutionTime = 41.64 s  ClockTime = 41 s

Time = 555

smoothSolver:  Solving for Ux, Initial residual = 0.000100233997044, Final residual = 8.89979405211e-06, No Iterations 4
smoothSolver:  Solving for Uy, Initial residual = 3.62286494185e-05, Final residual = 5.88462682256e-06, No Iterations 3
smoothSolver:  Solving for Uz, Initial residual = 1.69140955468e-05, Final residual = 9.10430775693e-06, No Iterations 1
GAMG:  Solving for p, Initial residual = 1.19618373933e-05, Final residual = 5.60445021239e-07, No Iterations 7
time step continuity errors : sum local = 3.6437887862e-07, global = 2.56913468557e-09, cumulative = 0.0177521708108
ExecutionTime = 41.72 s  ClockTime = 42 s

Time = 556

smoothSolver:  Solving for Ux, Initial residual = 9.9980060748e-05, Final residual = 8.87738338631e-06, No Iterations 4
smoothSolver:  Solving for Uy, Initial residual = 3.60807778026e-05, Final residual = 5.86204244994e-06, No Iterations 3
smoothSolver:  Solving for Uz, Initial residual = 1.68669826579e-05, Final residual = 9.07914952182e-06, No Iterations 1
GAMG:  Solving for p, Initial residual = 1.1889702731e-05, Final residual = 9.9722569256e-07, No Iterations 5
time step continuity errors : sum local = 6.48300185561e-07, global = 1.63741714702e-08, cumulative = 0.017752187185
ExecutionTime = 41.79 s  ClockTime = 42 s


SIMPLE solution converged in 556 iterations

    writing object shearStress
End

Finalising parallel run
