/*---------------------------------------------------------------------------*\
  =========                 |
  \\      /  F ield         | OpenFOAM: The Open Source CFD Toolbox
   \\    /   O peration     | Website:  https://openfoam.org
    \\  /    A nd           | Version:  9
     \\/     M anipulation  |
\*---------------------------------------------------------------------------*/
Build  : 9-b456138dc4bc
Exec   : reconstructPar
Date   : Nov 08 2022
Time   : 16:37:42
Host   : "KORIN-LAB"
PID    : 1775
I/O    : uncollated
Case   : /home/colin/OpenFOAM/colin-9/run/wsl/cfddfc/final_version/HB
nProcs : 1
sigFpe : Enabling floating point exception trapping (FOAM_SIGFPE).
fileModificationChecking : Monitoring run-time modified files using timeStampMaster (fileModificationSkew 10)
allowSystemOperations : Allowing user-supplied system call operations

// * * * * * * * * * * * * * * * * * * * * * * * * * * * * * * * * * * * * * //
Create time



Reconstructing fields for mesh region0

Time = 0.05

Reconstructing FV fields

    Reconstructing volScalarFields

        nu1
        p_rgh
        strainRate
        p
        alpha.bioink

    Reconstructing volVectorFields

        wallShearStress
        U

    Reconstructing volSymmTensorFields

        shearStress

    Reconstructing volTensorFields

        grad(U)

    Reconstructing surfaceScalarFields

        phi
        alphaPhi0.bioink

Reconstructing point fields

No point fields

No lagrangian fields

Time = 0.1

Reconstructing FV fields

    Reconstructing volScalarFields

        nu1
        p_rgh
        strainRate
        p
        alpha.bioink

    Reconstructing volVectorFields

        wallShearStress
        U

    Reconstructing volSymmTensorFields

        shearStress

    Reconstructing volTensorFields

        grad(U)

    Reconstructing surfaceScalarFields

        phi
        alphaPhi0.bioink

Reconstructing point fields

No point fields

No lagrangian fields

Time = 0.15

Reconstructing FV fields

    Reconstructing volScalarFields

        nu1
        p_rgh
        strainRate
        p
        alpha.bioink

    Reconstructing volVectorFields

        wallShearStress
        U

    Reconstructing volSymmTensorFields

        shearStress

    Reconstructing volTensorFields

        grad(U)

    Reconstructing surfaceScalarFields

        phi
        alphaPhi0.bioink

Reconstructing point fields

No point fields

No lagrangian fields

Time = 0.2

Reconstructing FV fields

    Reconstructing volScalarFields

        nu1
        p_rgh
        strainRate
        p
        alpha.bioink

    Reconstructing volVectorFields

        wallShearStress
        U

    Reconstructing volSymmTensorFields

        shearStress

    Reconstructing volTensorFields

        grad(U)

    Reconstructing surfaceScalarFields

        phi
        alphaPhi0.bioink

Reconstructing point fields

No point fields

No lagrangian fields

Time = 0.25

Reconstructing FV fields

    Reconstructing volScalarFields

        nu1
        p_rgh
        strainRate
        p
        alpha.bioink

    Reconstructing volVectorFields

        wallShearStress
        U

    Reconstructing volSymmTensorFields

        shearStress

    Reconstructing volTensorFields

        grad(U)

    Reconstructing surfaceScalarFields

        phi
        alphaPhi0.bioink

Reconstructing point fields

No point fields

No lagrangian fields

Time = 0.3

Reconstructing FV fields

    Reconstructing volScalarFields

        nu1
        p_rgh
        strainRate
        p
        alpha.bioink

    Reconstructing volVectorFields

        wallShearStress
        U

    Reconstructing volSymmTensorFields

        shearStress

    Reconstructing volTensorFields

        grad(U)

    Reconstructing surfaceScalarFields

        phi
        alphaPhi0.bioink

Reconstructing point fields

No point fields

No lagrangian fields

Time = 0.35

Reconstructing FV fields

    Reconstructing volScalarFields

        nu1
        p_rgh
        strainRate
        p
        alpha.bioink

    Reconstructing volVectorFields

        wallShearStress
        U

    Reconstructing volSymmTensorFields

        shearStress

    Reconstructing volTensorFields

        grad(U)

    Reconstructing surfaceScalarFields

        phi
        alphaPhi0.bioink

Reconstructing point fields

No point fields

No lagrangian fields

Time = 0.4

Reconstructing FV fields

    Reconstructing volScalarFields

        nu1
        p_rgh
        strainRate
        p
        alpha.bioink

    Reconstructing volVectorFields

        wallShearStress
        U

    Reconstructing volSymmTensorFields

        shearStress

    Reconstructing volTensorFields

        grad(U)

    Reconstructing surfaceScalarFields

        phi
        alphaPhi0.bioink

Reconstructing point fields

No point fields

No lagrangian fields

Time = 0.45

Reconstructing FV fields

    Reconstructing volScalarFields

        nu1
        p_rgh
        strainRate
        p
        alpha.bioink

    Reconstructing volVectorFields

        wallShearStress
        U

    Reconstructing volSymmTensorFields

        shearStress

    Reconstructing volTensorFields

        grad(U)

    Reconstructing surfaceScalarFields

        phi
        alphaPhi0.bioink

Reconstructing point fields

No point fields

No lagrangian fields

Time = 0.5

Reconstructing FV fields

    Reconstructing volScalarFields

        nu1
        p_rgh
        strainRate
        p
        alpha.bioink

    Reconstructing volVectorFields

        wallShearStress
        U

    Reconstructing volSymmTensorFields

        shearStress

    Reconstructing volTensorFields

        grad(U)

    Reconstructing surfaceScalarFields

        phi
        alphaPhi0.bioink

Reconstructing point fields

No point fields

No lagrangian fields

Time = 0.55

Reconstructing FV fields

    Reconstructing volScalarFields

        nu1
        p_rgh
        strainRate
        p
        alpha.bioink

    Reconstructing volVectorFields

        wallShearStress
        U

    Reconstructing volSymmTensorFields

        shearStress

    Reconstructing volTensorFields

        grad(U)

    Reconstructing surfaceScalarFields

        phi
        alphaPhi0.bioink

Reconstructing point fields

No point fields

No lagrangian fields

Time = 0.6

Reconstructing FV fields

    Reconstructing volScalarFields

        nu1
        p_rgh
        strainRate
        p
        alpha.bioink

    Reconstructing volVectorFields

        wallShearStress
        U

    Reconstructing volSymmTensorFields

        shearStress

    Reconstructing volTensorFields

        grad(U)

    Reconstructing surfaceScalarFields

        phi
        alphaPhi0.bioink

Reconstructing point fields

No point fields

No lagrangian fields

Time = 0.65

Reconstructing FV fields

    Reconstructing volScalarFields

        nu1
        p_rgh
        strainRate
        p
        alpha.bioink

    Reconstructing volVectorFields

        wallShearStress
        U

    Reconstructing volSymmTensorFields

        shearStress

    Reconstructing volTensorFields

        grad(U)

    Reconstructing surfaceScalarFields

        phi
        alphaPhi0.bioink

Reconstructing point fields

No point fields

No lagrangian fields

Time = 0.7

Reconstructing FV fields

    Reconstructing volScalarFields

        nu1
        p_rgh
        strainRate
        p
        alpha.bioink

    Reconstructing volVectorFields

        wallShearStress
        U

    Reconstructing volSymmTensorFields

        shearStress

    Reconstructing volTensorFields

        grad(U)

    Reconstructing surfaceScalarFields

        phi
        alphaPhi0.bioink

Reconstructing point fields

No point fields

No lagrangian fields

Time = 0.75

Reconstructing FV fields

    Reconstructing volScalarFields

        nu1
        p_rgh
        strainRate
        p
        alpha.bioink

    Reconstructing volVectorFields

        wallShearStress
        U

    Reconstructing volSymmTensorFields

        shearStress

    Reconstructing volTensorFields

        grad(U)

    Reconstructing surfaceScalarFields

        phi
        alphaPhi0.bioink

Reconstructing point fields

No point fields

No lagrangian fields

Time = 0.8

Reconstructing FV fields

    Reconstructing volScalarFields

        nu1
        p_rgh
        strainRate
        p
        alpha.bioink

    Reconstructing volVectorFields

        wallShearStress
        U

    Reconstructing volSymmTensorFields

        shearStress

    Reconstructing volTensorFields

        grad(U)

    Reconstructing surfaceScalarFields

        phi
        alphaPhi0.bioink

Reconstructing point fields

No point fields

No lagrangian fields

Time = 0.85

Reconstructing FV fields

    Reconstructing volScalarFields

        nu1
        p_rgh
        strainRate
        p
        alpha.bioink

    Reconstructing volVectorFields

        wallShearStress
        U

    Reconstructing volSymmTensorFields

        shearStress

    Reconstructing volTensorFields

        grad(U)

    Reconstructing surfaceScalarFields

        phi
        alphaPhi0.bioink

Reconstructing point fields

No point fields

No lagrangian fields

Time = 0.9

Reconstructing FV fields

    Reconstructing volScalarFields

        nu1
        p_rgh
        strainRate
        p
        alpha.bioink

    Reconstructing volVectorFields

        wallShearStress
        U

    Reconstructing volSymmTensorFields

        shearStress

    Reconstructing volTensorFields

        grad(U)

    Reconstructing surfaceScalarFields

        phi
        alphaPhi0.bioink

Reconstructing point fields

No point fields

No lagrangian fields

Time = 0.95

Reconstructing FV fields

    Reconstructing volScalarFields

        nu1
        p_rgh
        strainRate
        p
        alpha.bioink

    Reconstructing volVectorFields

        wallShearStress
        U

    Reconstructing volSymmTensorFields

        shearStress

    Reconstructing volTensorFields

        grad(U)

    Reconstructing surfaceScalarFields

        phi
        alphaPhi0.bioink

Reconstructing point fields

No point fields

No lagrangian fields

Time = 1

Reconstructing FV fields

    Reconstructing volScalarFields

        nu1
        p_rgh
        strainRate
        p
        alpha.bioink

    Reconstructing volVectorFields

        wallShearStress
        U

    Reconstructing volSymmTensorFields

        shearStress

    Reconstructing volTensorFields

        grad(U)

    Reconstructing surfaceScalarFields

        phi
        alphaPhi0.bioink

Reconstructing point fields

No point fields

No lagrangian fields

Time = 1.05

Reconstructing FV fields

    Reconstructing volScalarFields

        nu1
        p_rgh
        strainRate
        p
        alpha.bioink

    Reconstructing volVectorFields

        wallShearStress
        U

    Reconstructing volSymmTensorFields

        shearStress

    Reconstructing volTensorFields

        grad(U)

    Reconstructing surfaceScalarFields

        phi
        alphaPhi0.bioink

Reconstructing point fields

No point fields

No lagrangian fields

Time = 1.1

Reconstructing FV fields

    Reconstructing volScalarFields

        nu1
        p_rgh
        strainRate
        p
        alpha.bioink

    Reconstructing volVectorFields

        wallShearStress
        U

    Reconstructing volSymmTensorFields

        shearStress

    Reconstructing volTensorFields

        grad(U)

    Reconstructing surfaceScalarFields

        phi
        alphaPhi0.bioink

Reconstructing point fields

No point fields

No lagrangian fields

Time = 1.15

Reconstructing FV fields

    Reconstructing volScalarFields

        nu1
        p_rgh
        strainRate
        p
        alpha.bioink

    Reconstructing volVectorFields

        wallShearStress
        U

    Reconstructing volSymmTensorFields

        shearStress

    Reconstructing volTensorFields

        grad(U)

    Reconstructing surfaceScalarFields

        phi
        alphaPhi0.bioink

Reconstructing point fields

No point fields

No lagrangian fields

Time = 1.2

Reconstructing FV fields

    Reconstructing volScalarFields

        nu1
        p_rgh
        strainRate
        p
        alpha.bioink

    Reconstructing volVectorFields

        wallShearStress
        U

    Reconstructing volSymmTensorFields

        shearStress

    Reconstructing volTensorFields

        grad(U)

    Reconstructing surfaceScalarFields

        phi
        alphaPhi0.bioink

Reconstructing point fields

No point fields

No lagrangian fields

Time = 1.25

Reconstructing FV fields

    Reconstructing volScalarFields

        nu1
        p_rgh
        strainRate
        p
        alpha.bioink

    Reconstructing volVectorFields

        wallShearStress
        U

    Reconstructing volSymmTensorFields

        shearStress

    Reconstructing volTensorFields

        grad(U)

    Reconstructing surfaceScalarFields

        phi
        alphaPhi0.bioink

Reconstructing point fields

No point fields

No lagrangian fields

Time = 1.3

Reconstructing FV fields

    Reconstructing volScalarFields

        nu1
        p_rgh
        strainRate
        p
        alpha.bioink

    Reconstructing volVectorFields

        wallShearStress
        U

    Reconstructing volSymmTensorFields

        shearStress

    Reconstructing volTensorFields

        grad(U)

    Reconstructing surfaceScalarFields

        phi
        alphaPhi0.bioink

Reconstructing point fields

No point fields

No lagrangian fields

Time = 1.35

Reconstructing FV fields

    Reconstructing volScalarFields

        nu1
        p_rgh
        strainRate
        p
        alpha.bioink

    Reconstructing volVectorFields

        wallShearStress
        U

    Reconstructing volSymmTensorFields

        shearStress

    Reconstructing volTensorFields

        grad(U)

    Reconstructing surfaceScalarFields

        phi
        alphaPhi0.bioink

Reconstructing point fields

No point fields

No lagrangian fields

Time = 1.4

Reconstructing FV fields

    Reconstructing volScalarFields

        nu1
        p_rgh
        strainRate
        p
        alpha.bioink

    Reconstructing volVectorFields

        wallShearStress
        U

    Reconstructing volSymmTensorFields

        shearStress

    Reconstructing volTensorFields

        grad(U)

    Reconstructing surfaceScalarFields

        phi
        alphaPhi0.bioink

Reconstructing point fields

No point fields

No lagrangian fields

Time = 1.45

Reconstructing FV fields

    Reconstructing volScalarFields

        nu1
        p_rgh
        strainRate
        p
        alpha.bioink

    Reconstructing volVectorFields

        wallShearStress
        U

    Reconstructing volSymmTensorFields

        shearStress

    Reconstructing volTensorFields

        grad(U)

    Reconstructing surfaceScalarFields

        phi
        alphaPhi0.bioink

Reconstructing point fields

No point fields

No lagrangian fields

Time = 1.5

Reconstructing FV fields

    Reconstructing volScalarFields

        nu1
        p_rgh
        strainRate
        p
        alpha.bioink

    Reconstructing volVectorFields

        wallShearStress
        U

    Reconstructing volSymmTensorFields

        shearStress

    Reconstructing volTensorFields

        grad(U)

    Reconstructing surfaceScalarFields

        phi
        alphaPhi0.bioink

Reconstructing point fields

No point fields

No lagrangian fields

Time = 1.55

Reconstructing FV fields

    Reconstructing volScalarFields

        nu1
        p_rgh
        strainRate
        p
        alpha.bioink

    Reconstructing volVectorFields

        wallShearStress
        U

    Reconstructing volSymmTensorFields

        shearStress

    Reconstructing volTensorFields

        grad(U)

    Reconstructing surfaceScalarFields

        phi
        alphaPhi0.bioink

Reconstructing point fields

No point fields

No lagrangian fields

Time = 1.6

Reconstructing FV fields

    Reconstructing volScalarFields

        nu1
        p_rgh
        strainRate
        p
        alpha.bioink

    Reconstructing volVectorFields

        wallShearStress
        U

    Reconstructing volSymmTensorFields

        shearStress

    Reconstructing volTensorFields

        grad(U)

    Reconstructing surfaceScalarFields

        phi
        alphaPhi0.bioink

Reconstructing point fields

No point fields

No lagrangian fields

Time = 1.65

Reconstructing FV fields

    Reconstructing volScalarFields

        nu1
        p_rgh
        strainRate
        p
        alpha.bioink

    Reconstructing volVectorFields

        wallShearStress
        U

    Reconstructing volSymmTensorFields

        shearStress

    Reconstructing volTensorFields

        grad(U)

    Reconstructing surfaceScalarFields

        phi
        alphaPhi0.bioink

Reconstructing point fields

No point fields

No lagrangian fields

Time = 1.7

Reconstructing FV fields

    Reconstructing volScalarFields

        nu1
        p_rgh
        strainRate
        p
        alpha.bioink

    Reconstructing volVectorFields

        wallShearStress
        U

    Reconstructing volSymmTensorFields

        shearStress

    Reconstructing volTensorFields

        grad(U)

    Reconstructing surfaceScalarFields

        phi
        alphaPhi0.bioink

Reconstructing point fields

No point fields

No lagrangian fields

Time = 1.75

Reconstructing FV fields

    Reconstructing volScalarFields

        nu1
        p_rgh
        strainRate
        p
        alpha.bioink

    Reconstructing volVectorFields

        wallShearStress
        U

    Reconstructing volSymmTensorFields

        shearStress

    Reconstructing volTensorFields

        grad(U)

    Reconstructing surfaceScalarFields

        phi
        alphaPhi0.bioink

Reconstructing point fields

No point fields

No lagrangian fields

Time = 1.8

Reconstructing FV fields

    Reconstructing volScalarFields

        nu1
        p_rgh
        strainRate
        p
        alpha.bioink

    Reconstructing volVectorFields

        wallShearStress
        U

    Reconstructing volSymmTensorFields

        shearStress

    Reconstructing volTensorFields

        grad(U)

    Reconstructing surfaceScalarFields

        phi
        alphaPhi0.bioink

Reconstructing point fields

No point fields

No lagrangian fields

Time = 1.85

Reconstructing FV fields

    Reconstructing volScalarFields

        nu1
        p_rgh
        strainRate
        p
        alpha.bioink

    Reconstructing volVectorFields

        wallShearStress
        U

    Reconstructing volSymmTensorFields

        shearStress

    Reconstructing volTensorFields

        grad(U)

    Reconstructing surfaceScalarFields

        phi
        alphaPhi0.bioink

Reconstructing point fields

No point fields

No lagrangian fields

Time = 1.9

Reconstructing FV fields

    Reconstructing volScalarFields

        nu1
        p_rgh
        strainRate
        p
        alpha.bioink

    Reconstructing volVectorFields

        wallShearStress
        U

    Reconstructing volSymmTensorFields

        shearStress

    Reconstructing volTensorFields

        grad(U)

    Reconstructing surfaceScalarFields

        phi
        alphaPhi0.bioink

Reconstructing point fields

No point fields

No lagrangian fields

Time = 1.95

Reconstructing FV fields

    Reconstructing volScalarFields

        nu1
        p_rgh
        strainRate
        p
        alpha.bioink

    Reconstructing volVectorFields

        wallShearStress
        U

    Reconstructing volSymmTensorFields

        shearStress

    Reconstructing volTensorFields

        grad(U)

    Reconstructing surfaceScalarFields

        phi
        alphaPhi0.bioink

Reconstructing point fields

No point fields

No lagrangian fields

Time = 2

Reconstructing FV fields

    Reconstructing volScalarFields

        nu1
        p_rgh
        strainRate
        p
        alpha.bioink

    Reconstructing volVectorFields

        wallShearStress
        U

    Reconstructing volSymmTensorFields

        shearStress

    Reconstructing volTensorFields

        grad(U)

    Reconstructing surfaceScalarFields

        phi
        alphaPhi0.bioink

Reconstructing point fields

No point fields

No lagrangian fields

Time = 2.05

Reconstructing FV fields

    Reconstructing volScalarFields

        nu1
        p_rgh
        strainRate
        p
        alpha.bioink

    Reconstructing volVectorFields

        wallShearStress
        U

    Reconstructing volSymmTensorFields

        shearStress

    Reconstructing volTensorFields

        grad(U)

    Reconstructing surfaceScalarFields

        phi
        alphaPhi0.bioink

Reconstructing point fields

No point fields

No lagrangian fields

Time = 2.1

Reconstructing FV fields

    Reconstructing volScalarFields

        nu1
        p_rgh
        strainRate
        p
        alpha.bioink

    Reconstructing volVectorFields

        wallShearStress
        U

    Reconstructing volSymmTensorFields

        shearStress

    Reconstructing volTensorFields

        grad(U)

    Reconstructing surfaceScalarFields

        phi
        alphaPhi0.bioink

Reconstructing point fields

No point fields

No lagrangian fields

Time = 2.15

Reconstructing FV fields

    Reconstructing volScalarFields

        nu1
        p_rgh
        strainRate
        p
        alpha.bioink

    Reconstructing volVectorFields

        wallShearStress
        U

    Reconstructing volSymmTensorFields

        shearStress

    Reconstructing volTensorFields

        grad(U)

    Reconstructing surfaceScalarFields

        phi
        alphaPhi0.bioink

Reconstructing point fields

No point fields

No lagrangian fields

Time = 2.2

Reconstructing FV fields

    Reconstructing volScalarFields

        nu1
        p_rgh
        strainRate
        p
        alpha.bioink

    Reconstructing volVectorFields

        wallShearStress
        U

    Reconstructing volSymmTensorFields

        shearStress

    Reconstructing volTensorFields

        grad(U)

    Reconstructing surfaceScalarFields

        phi
        alphaPhi0.bioink

Reconstructing point fields

No point fields

No lagrangian fields

Time = 2.25

Reconstructing FV fields

    Reconstructing volScalarFields

        nu1
        p_rgh
        strainRate
        p
        alpha.bioink

    Reconstructing volVectorFields

        wallShearStress
        U

    Reconstructing volSymmTensorFields

        shearStress

    Reconstructing volTensorFields

        grad(U)

    Reconstructing surfaceScalarFields

        phi
        alphaPhi0.bioink

Reconstructing point fields

No point fields

No lagrangian fields

Time = 2.3

Reconstructing FV fields

    Reconstructing volScalarFields

        nu1
        p_rgh
        strainRate
        p
        alpha.bioink

    Reconstructing volVectorFields

        wallShearStress
        U

    Reconstructing volSymmTensorFields

        shearStress

    Reconstructing volTensorFields

        grad(U)

    Reconstructing surfaceScalarFields

        phi
        alphaPhi0.bioink

Reconstructing point fields

No point fields

No lagrangian fields

Time = 2.35

Reconstructing FV fields

    Reconstructing volScalarFields

        nu1
        p_rgh
        strainRate
        p
        alpha.bioink

    Reconstructing volVectorFields

        wallShearStress
        U

    Reconstructing volSymmTensorFields

        shearStress

    Reconstructing volTensorFields

        grad(U)

    Reconstructing surfaceScalarFields

        phi
        alphaPhi0.bioink

Reconstructing point fields

No point fields

No lagrangian fields

Time = 2.4

Reconstructing FV fields

    Reconstructing volScalarFields

        nu1
        p_rgh
        strainRate
        p
        alpha.bioink

    Reconstructing volVectorFields

        wallShearStress
        U

    Reconstructing volSymmTensorFields

        shearStress

    Reconstructing volTensorFields

        grad(U)

    Reconstructing surfaceScalarFields

        phi
        alphaPhi0.bioink

Reconstructing point fields

No point fields

No lagrangian fields

Time = 2.45

Reconstructing FV fields

    Reconstructing volScalarFields

        nu1
        p_rgh
        strainRate
        p
        alpha.bioink

    Reconstructing volVectorFields

        wallShearStress
        U

    Reconstructing volSymmTensorFields

        shearStress

    Reconstructing volTensorFields

        grad(U)

    Reconstructing surfaceScalarFields

        phi
        alphaPhi0.bioink

Reconstructing point fields

No point fields

No lagrangian fields

Time = 2.5

Reconstructing FV fields

    Reconstructing volScalarFields

        nu1
        p_rgh
        strainRate
        p
        alpha.bioink

    Reconstructing volVectorFields

        wallShearStress
        U

    Reconstructing volSymmTensorFields

        shearStress

    Reconstructing volTensorFields

        grad(U)

    Reconstructing surfaceScalarFields

        phi
        alphaPhi0.bioink

Reconstructing point fields

No point fields

No lagrangian fields

Time = 2.55

Reconstructing FV fields

    Reconstructing volScalarFields

        nu1
        p_rgh
        strainRate
        p
        alpha.bioink

    Reconstructing volVectorFields

        wallShearStress
        U

    Reconstructing volSymmTensorFields

        shearStress

    Reconstructing volTensorFields

        grad(U)

    Reconstructing surfaceScalarFields

        phi
        alphaPhi0.bioink

Reconstructing point fields

No point fields

No lagrangian fields

Time = 2.6

Reconstructing FV fields

    Reconstructing volScalarFields

        nu1
        p_rgh
        strainRate
        p
        alpha.bioink

    Reconstructing volVectorFields

        wallShearStress
        U

    Reconstructing volSymmTensorFields

        shearStress

    Reconstructing volTensorFields

        grad(U)

    Reconstructing surfaceScalarFields

        phi
        alphaPhi0.bioink

Reconstructing point fields

No point fields

No lagrangian fields

Time = 2.65

Reconstructing FV fields

    Reconstructing volScalarFields

        nu1
        p_rgh
        strainRate
        p
        alpha.bioink

    Reconstructing volVectorFields

        wallShearStress
        U

    Reconstructing volSymmTensorFields

        shearStress

    Reconstructing volTensorFields

        grad(U)

    Reconstructing surfaceScalarFields

        phi
        alphaPhi0.bioink

Reconstructing point fields

No point fields

No lagrangian fields

Time = 2.7

Reconstructing FV fields

    Reconstructing volScalarFields

        nu1
        p_rgh
        strainRate
        p
        alpha.bioink

    Reconstructing volVectorFields

        wallShearStress
        U

    Reconstructing volSymmTensorFields

        shearStress

    Reconstructing volTensorFields

        grad(U)

    Reconstructing surfaceScalarFields

        phi
        alphaPhi0.bioink

Reconstructing point fields

No point fields

No lagrangian fields

Time = 2.75

Reconstructing FV fields

    Reconstructing volScalarFields

        nu1
        p_rgh
        strainRate
        p
        alpha.bioink

    Reconstructing volVectorFields

        wallShearStress
        U

    Reconstructing volSymmTensorFields

        shearStress

    Reconstructing volTensorFields

        grad(U)

    Reconstructing surfaceScalarFields

        phi
        alphaPhi0.bioink

Reconstructing point fields

No point fields

No lagrangian fields

Time = 2.8

Reconstructing FV fields

    Reconstructing volScalarFields

        nu1
        p_rgh
        strainRate
        p
        alpha.bioink

    Reconstructing volVectorFields

        wallShearStress
        U

    Reconstructing volSymmTensorFields

        shearStress

    Reconstructing volTensorFields

        grad(U)

    Reconstructing surfaceScalarFields

        phi
        alphaPhi0.bioink

Reconstructing point fields

No point fields

No lagrangian fields

Time = 2.85

Reconstructing FV fields

    Reconstructing volScalarFields

        nu1
        p_rgh
        strainRate
        p
        alpha.bioink

    Reconstructing volVectorFields

        wallShearStress
        U

    Reconstructing volSymmTensorFields

        shearStress

    Reconstructing volTensorFields

        grad(U)

    Reconstructing surfaceScalarFields

        phi
        alphaPhi0.bioink

Reconstructing point fields

No point fields

No lagrangian fields

Time = 2.9

Reconstructing FV fields

    Reconstructing volScalarFields

        nu1
        p_rgh
        strainRate
        p
        alpha.bioink

    Reconstructing volVectorFields

        wallShearStress
        U

    Reconstructing volSymmTensorFields

        shearStress

    Reconstructing volTensorFields

        grad(U)

    Reconstructing surfaceScalarFields

        phi
        alphaPhi0.bioink

Reconstructing point fields

No point fields

No lagrangian fields

Time = 2.95

Reconstructing FV fields

    Reconstructing volScalarFields

        nu1
        p_rgh
        strainRate
        p
        alpha.bioink

    Reconstructing volVectorFields

        wallShearStress
        U

    Reconstructing volSymmTensorFields

        shearStress

    Reconstructing volTensorFields

        grad(U)

    Reconstructing surfaceScalarFields

        phi
        alphaPhi0.bioink

Reconstructing point fields

No point fields

No lagrangian fields

Time = 3

Reconstructing FV fields

    Reconstructing volScalarFields

        nu1
        p_rgh
        strainRate
        p
        alpha.bioink

    Reconstructing volVectorFields

        wallShearStress
        U

    Reconstructing volSymmTensorFields

        shearStress

    Reconstructing volTensorFields

        grad(U)

    Reconstructing surfaceScalarFields

        phi
        alphaPhi0.bioink

Reconstructing point fields

No point fields

No lagrangian fields

Time = 3.05

Reconstructing FV fields

    Reconstructing volScalarFields

        nu1
        p_rgh
        strainRate
        p
        alpha.bioink

    Reconstructing volVectorFields

        wallShearStress
        U

    Reconstructing volSymmTensorFields

        shearStress

    Reconstructing volTensorFields

        grad(U)

    Reconstructing surfaceScalarFields

        phi
        alphaPhi0.bioink

Reconstructing point fields

No point fields

No lagrangian fields

Time = 3.1

Reconstructing FV fields

    Reconstructing volScalarFields

        nu1
        p_rgh
        strainRate
        p
        alpha.bioink

    Reconstructing volVectorFields

        wallShearStress
        U

    Reconstructing volSymmTensorFields

        shearStress

    Reconstructing volTensorFields

        grad(U)

    Reconstructing surfaceScalarFields

        phi
        alphaPhi0.bioink

Reconstructing point fields

No point fields

No lagrangian fields

Time = 3.15

Reconstructing FV fields

    Reconstructing volScalarFields

        nu1
        p_rgh
        strainRate
        p
        alpha.bioink

    Reconstructing volVectorFields

        wallShearStress
        U

    Reconstructing volSymmTensorFields

        shearStress

    Reconstructing volTensorFields

        grad(U)

    Reconstructing surfaceScalarFields

        phi
        alphaPhi0.bioink

Reconstructing point fields

No point fields

No lagrangian fields

Time = 3.2

Reconstructing FV fields

    Reconstructing volScalarFields

        nu1
        p_rgh
        strainRate
        p
        alpha.bioink

    Reconstructing volVectorFields

        wallShearStress
        U

    Reconstructing volSymmTensorFields

        shearStress

    Reconstructing volTensorFields

        grad(U)

    Reconstructing surfaceScalarFields

        phi
        alphaPhi0.bioink

Reconstructing point fields

No point fields

No lagrangian fields

Time = 3.25

Reconstructing FV fields

    Reconstructing volScalarFields

        nu1
        p_rgh
        strainRate
        p
        alpha.bioink

    Reconstructing volVectorFields

        wallShearStress
        U

    Reconstructing volSymmTensorFields

        shearStress

    Reconstructing volTensorFields

        grad(U)

    Reconstructing surfaceScalarFields

        phi
        alphaPhi0.bioink

Reconstructing point fields

No point fields

No lagrangian fields

Time = 3.3

Reconstructing FV fields

    Reconstructing volScalarFields

        nu1
        p_rgh
        strainRate
        p
        alpha.bioink

    Reconstructing volVectorFields

        wallShearStress
        U

    Reconstructing volSymmTensorFields

        shearStress

    Reconstructing volTensorFields

        grad(U)

    Reconstructing surfaceScalarFields

        phi
        alphaPhi0.bioink

Reconstructing point fields

No point fields

No lagrangian fields

Time = 3.35

Reconstructing FV fields

    Reconstructing volScalarFields

        nu1
        p_rgh
        strainRate
        p
        alpha.bioink

    Reconstructing volVectorFields

        wallShearStress
        U

    Reconstructing volSymmTensorFields

        shearStress

    Reconstructing volTensorFields

        grad(U)

    Reconstructing surfaceScalarFields

        phi
        alphaPhi0.bioink

Reconstructing point fields

No point fields

No lagrangian fields

Time = 3.4

Reconstructing FV fields

    Reconstructing volScalarFields

        nu1
        p_rgh
        strainRate
        p
        alpha.bioink

    Reconstructing volVectorFields

        wallShearStress
        U

    Reconstructing volSymmTensorFields

        shearStress

    Reconstructing volTensorFields

        grad(U)

    Reconstructing surfaceScalarFields

        phi
        alphaPhi0.bioink

Reconstructing point fields

No point fields

No lagrangian fields

Time = 3.45

Reconstructing FV fields

    Reconstructing volScalarFields

        nu1
        p_rgh
        strainRate
        p
        alpha.bioink

    Reconstructing volVectorFields

        wallShearStress
        U

    Reconstructing volSymmTensorFields

        shearStress

    Reconstructing volTensorFields

        grad(U)

    Reconstructing surfaceScalarFields

        phi
        alphaPhi0.bioink

Reconstructing point fields

No point fields

No lagrangian fields

Time = 3.5

Reconstructing FV fields

    Reconstructing volScalarFields

        nu1
        p_rgh
        strainRate
        p
        alpha.bioink

    Reconstructing volVectorFields

        wallShearStress
        U

    Reconstructing volSymmTensorFields

        shearStress

    Reconstructing volTensorFields

        grad(U)

    Reconstructing surfaceScalarFields

        phi
        alphaPhi0.bioink

Reconstructing point fields

No point fields

No lagrangian fields

Time = 3.55

Reconstructing FV fields

    Reconstructing volScalarFields

        nu1
        p_rgh
        strainRate
        p
        alpha.bioink

    Reconstructing volVectorFields

        wallShearStress
        U

    Reconstructing volSymmTensorFields

        shearStress

    Reconstructing volTensorFields

        grad(U)

    Reconstructing surfaceScalarFields

        phi
        alphaPhi0.bioink

Reconstructing point fields

No point fields

No lagrangian fields

Time = 3.6

Reconstructing FV fields

    Reconstructing volScalarFields

        nu1
        p_rgh
        strainRate
        p
        alpha.bioink

    Reconstructing volVectorFields

        wallShearStress
        U

    Reconstructing volSymmTensorFields

        shearStress

    Reconstructing volTensorFields

        grad(U)

    Reconstructing surfaceScalarFields

        phi
        alphaPhi0.bioink

Reconstructing point fields

No point fields

No lagrangian fields

Time = 3.65

Reconstructing FV fields

    Reconstructing volScalarFields

        nu1
        p_rgh
        strainRate
        p
        alpha.bioink

    Reconstructing volVectorFields

        wallShearStress
        U

    Reconstructing volSymmTensorFields

        shearStress

    Reconstructing volTensorFields

        grad(U)

    Reconstructing surfaceScalarFields

        phi
        alphaPhi0.bioink

Reconstructing point fields

No point fields

No lagrangian fields

Time = 3.7

Reconstructing FV fields

    Reconstructing volScalarFields

        nu1
        p_rgh
        strainRate
        p
        alpha.bioink

    Reconstructing volVectorFields

        wallShearStress
        U

    Reconstructing volSymmTensorFields

        shearStress

    Reconstructing volTensorFields

        grad(U)

    Reconstructing surfaceScalarFields

        phi
        alphaPhi0.bioink

Reconstructing point fields

No point fields

No lagrangian fields

Time = 3.75

Reconstructing FV fields

    Reconstructing volScalarFields

        nu1
        p_rgh
        strainRate
        p
        alpha.bioink

    Reconstructing volVectorFields

        wallShearStress
        U

    Reconstructing volSymmTensorFields

        shearStress

    Reconstructing volTensorFields

        grad(U)

    Reconstructing surfaceScalarFields

        phi
        alphaPhi0.bioink

Reconstructing point fields

No point fields

No lagrangian fields

Time = 3.8

Reconstructing FV fields

    Reconstructing volScalarFields

        nu1
        p_rgh
        strainRate
        p
        alpha.bioink

    Reconstructing volVectorFields

        wallShearStress
        U

    Reconstructing volSymmTensorFields

        shearStress

    Reconstructing volTensorFields

        grad(U)

    Reconstructing surfaceScalarFields

        phi
        alphaPhi0.bioink

Reconstructing point fields

No point fields

No lagrangian fields

Time = 3.85

Reconstructing FV fields

    Reconstructing volScalarFields

        nu1
        p_rgh
        strainRate
        p
        alpha.bioink

    Reconstructing volVectorFields

        wallShearStress
        U

    Reconstructing volSymmTensorFields

        shearStress

    Reconstructing volTensorFields

        grad(U)

    Reconstructing surfaceScalarFields

        phi
        alphaPhi0.bioink

Reconstructing point fields

No point fields

No lagrangian fields

Time = 3.9

Reconstructing FV fields

    Reconstructing volScalarFields

        nu1
        p_rgh
        strainRate
        p
        alpha.bioink

    Reconstructing volVectorFields

        wallShearStress
        U

    Reconstructing volSymmTensorFields

        shearStress

    Reconstructing volTensorFields

        grad(U)

    Reconstructing surfaceScalarFields

        phi
        alphaPhi0.bioink

Reconstructing point fields

No point fields

No lagrangian fields

Time = 3.95

Reconstructing FV fields

    Reconstructing volScalarFields

        nu1
        p_rgh
        strainRate
        p
        alpha.bioink

    Reconstructing volVectorFields

        wallShearStress
        U

    Reconstructing volSymmTensorFields

        shearStress

    Reconstructing volTensorFields

        grad(U)

    Reconstructing surfaceScalarFields

        phi
        alphaPhi0.bioink

Reconstructing point fields

No point fields

No lagrangian fields

Time = 4

Reconstructing FV fields

    Reconstructing volScalarFields

        nu1
        p_rgh
        strainRate
        p
        alpha.bioink

    Reconstructing volVectorFields

        wallShearStress
        U

    Reconstructing volSymmTensorFields

        shearStress

    Reconstructing volTensorFields

        grad(U)

    Reconstructing surfaceScalarFields

        phi
        alphaPhi0.bioink

Reconstructing point fields

No point fields

No lagrangian fields

Time = 4.05

Reconstructing FV fields

    Reconstructing volScalarFields

        nu1
        p_rgh
        strainRate
        p
        alpha.bioink

    Reconstructing volVectorFields

        wallShearStress
        U

    Reconstructing volSymmTensorFields

        shearStress

    Reconstructing volTensorFields

        grad(U)

    Reconstructing surfaceScalarFields

        phi
        alphaPhi0.bioink

Reconstructing point fields

No point fields

No lagrangian fields

Time = 4.1

Reconstructing FV fields

    Reconstructing volScalarFields

        nu1
        p_rgh
        strainRate
        p
        alpha.bioink

    Reconstructing volVectorFields

        wallShearStress
        U

    Reconstructing volSymmTensorFields

        shearStress

    Reconstructing volTensorFields

        grad(U)

    Reconstructing surfaceScalarFields

        phi
        alphaPhi0.bioink

Reconstructing point fields

No point fields

No lagrangian fields

Time = 4.15

Reconstructing FV fields

    Reconstructing volScalarFields

        nu1
        p_rgh
        strainRate
        p
        alpha.bioink

    Reconstructing volVectorFields

        wallShearStress
        U

    Reconstructing volSymmTensorFields

        shearStress

    Reconstructing volTensorFields

        grad(U)

    Reconstructing surfaceScalarFields

        phi
        alphaPhi0.bioink

Reconstructing point fields

No point fields

No lagrangian fields

Time = 4.2

Reconstructing FV fields

    Reconstructing volScalarFields

        nu1
        p_rgh
        strainRate
        p
        alpha.bioink

    Reconstructing volVectorFields

        wallShearStress
        U

    Reconstructing volSymmTensorFields

        shearStress

    Reconstructing volTensorFields

        grad(U)

    Reconstructing surfaceScalarFields

        phi
        alphaPhi0.bioink

Reconstructing point fields

No point fields

No lagrangian fields

Time = 4.25

Reconstructing FV fields

    Reconstructing volScalarFields

        nu1
        p_rgh
        strainRate
        p
        alpha.bioink

    Reconstructing volVectorFields

        wallShearStress
        U

    Reconstructing volSymmTensorFields

        shearStress

    Reconstructing volTensorFields

        grad(U)

    Reconstructing surfaceScalarFields

        phi
        alphaPhi0.bioink

Reconstructing point fields

No point fields

No lagrangian fields

Time = 4.3

Reconstructing FV fields

    Reconstructing volScalarFields

        nu1
        p_rgh
        strainRate
        p
        alpha.bioink

    Reconstructing volVectorFields

        wallShearStress
        U

    Reconstructing volSymmTensorFields

        shearStress

    Reconstructing volTensorFields

        grad(U)

    Reconstructing surfaceScalarFields

        phi
        alphaPhi0.bioink

Reconstructing point fields

No point fields

No lagrangian fields

Time = 4.35

Reconstructing FV fields

    Reconstructing volScalarFields

        nu1
        p_rgh
        strainRate
        p
        alpha.bioink

    Reconstructing volVectorFields

        wallShearStress
        U

    Reconstructing volSymmTensorFields

        shearStress

    Reconstructing volTensorFields

        grad(U)

    Reconstructing surfaceScalarFields

        phi
        alphaPhi0.bioink

Reconstructing point fields

No point fields

No lagrangian fields

Time = 4.4

Reconstructing FV fields

    Reconstructing volScalarFields

        nu1
        p_rgh
        strainRate
        p
        alpha.bioink

    Reconstructing volVectorFields

        wallShearStress
        U

    Reconstructing volSymmTensorFields

        shearStress

    Reconstructing volTensorFields

        grad(U)

    Reconstructing surfaceScalarFields

        phi
        alphaPhi0.bioink

Reconstructing point fields

No point fields

No lagrangian fields

Time = 4.45

Reconstructing FV fields

    Reconstructing volScalarFields

        nu1
        p_rgh
        strainRate
        p
        alpha.bioink

    Reconstructing volVectorFields

        wallShearStress
        U

    Reconstructing volSymmTensorFields

        shearStress

    Reconstructing volTensorFields

        grad(U)

    Reconstructing surfaceScalarFields

        phi
        alphaPhi0.bioink

Reconstructing point fields

No point fields

No lagrangian fields

Time = 4.5

Reconstructing FV fields

    Reconstructing volScalarFields

        nu1
        p_rgh
        strainRate
        p
        alpha.bioink

    Reconstructing volVectorFields

        wallShearStress
        U

    Reconstructing volSymmTensorFields

        shearStress

    Reconstructing volTensorFields

        grad(U)

    Reconstructing surfaceScalarFields

        phi
        alphaPhi0.bioink

Reconstructing point fields

No point fields

No lagrangian fields

Time = 4.55

Reconstructing FV fields

    Reconstructing volScalarFields

        nu1
        p_rgh
        strainRate
        p
        alpha.bioink

    Reconstructing volVectorFields

        wallShearStress
        U

    Reconstructing volSymmTensorFields

        shearStress

    Reconstructing volTensorFields

        grad(U)

    Reconstructing surfaceScalarFields

        phi
        alphaPhi0.bioink

Reconstructing point fields

No point fields

No lagrangian fields

Time = 4.6

Reconstructing FV fields

    Reconstructing volScalarFields

        nu1
        p_rgh
        strainRate
        p
        alpha.bioink

    Reconstructing volVectorFields

        wallShearStress
        U

    Reconstructing volSymmTensorFields

        shearStress

    Reconstructing volTensorFields

        grad(U)

    Reconstructing surfaceScalarFields

        phi
        alphaPhi0.bioink

Reconstructing point fields

No point fields

No lagrangian fields

Time = 4.65

Reconstructing FV fields

    Reconstructing volScalarFields

        nu1
        p_rgh
        strainRate
        p
        alpha.bioink

    Reconstructing volVectorFields

        wallShearStress
        U

    Reconstructing volSymmTensorFields

        shearStress

    Reconstructing volTensorFields

        grad(U)

    Reconstructing surfaceScalarFields

        phi
        alphaPhi0.bioink

Reconstructing point fields

No point fields

No lagrangian fields

Time = 4.7

Reconstructing FV fields

    Reconstructing volScalarFields

        nu1
        p_rgh
        strainRate
        p
        alpha.bioink

    Reconstructing volVectorFields

        wallShearStress
        U

    Reconstructing volSymmTensorFields

        shearStress

    Reconstructing volTensorFields

        grad(U)

    Reconstructing surfaceScalarFields

        phi
        alphaPhi0.bioink

Reconstructing point fields

No point fields

No lagrangian fields

Time = 4.75

Reconstructing FV fields

    Reconstructing volScalarFields

        nu1
        p_rgh
        strainRate
        p
        alpha.bioink

    Reconstructing volVectorFields

        wallShearStress
        U

    Reconstructing volSymmTensorFields

        shearStress

    Reconstructing volTensorFields

        grad(U)

    Reconstructing surfaceScalarFields

        phi
        alphaPhi0.bioink

Reconstructing point fields

No point fields

No lagrangian fields

Time = 4.8

Reconstructing FV fields

    Reconstructing volScalarFields

        nu1
        p_rgh
        strainRate
        p
        alpha.bioink

    Reconstructing volVectorFields

        wallShearStress
        U

    Reconstructing volSymmTensorFields

        shearStress

    Reconstructing volTensorFields

        grad(U)

    Reconstructing surfaceScalarFields

        phi
        alphaPhi0.bioink

Reconstructing point fields

No point fields

No lagrangian fields

Time = 4.85

Reconstructing FV fields

    Reconstructing volScalarFields

        nu1
        p_rgh
        strainRate
        p
        alpha.bioink

    Reconstructing volVectorFields

        wallShearStress
        U

    Reconstructing volSymmTensorFields

        shearStress

    Reconstructing volTensorFields

        grad(U)

    Reconstructing surfaceScalarFields

        phi
        alphaPhi0.bioink

Reconstructing point fields

No point fields

No lagrangian fields

Time = 4.9

Reconstructing FV fields

    Reconstructing volScalarFields

        nu1
        p_rgh
        strainRate
        p
        alpha.bioink

    Reconstructing volVectorFields

        wallShearStress
        U

    Reconstructing volSymmTensorFields

        shearStress

    Reconstructing volTensorFields

        grad(U)

    Reconstructing surfaceScalarFields

        phi
        alphaPhi0.bioink

Reconstructing point fields

No point fields

No lagrangian fields

Time = 4.95

Reconstructing FV fields

    Reconstructing volScalarFields

        nu1
        p_rgh
        strainRate
        p
        alpha.bioink

    Reconstructing volVectorFields

        wallShearStress
        U

    Reconstructing volSymmTensorFields

        shearStress

    Reconstructing volTensorFields

        grad(U)

    Reconstructing surfaceScalarFields

        phi
        alphaPhi0.bioink

Reconstructing point fields

No point fields

No lagrangian fields

Time = 5

Reconstructing FV fields

    Reconstructing volScalarFields

        nu1
        p_rgh
        strainRate
        p
        alpha.bioink

    Reconstructing volVectorFields

        wallShearStress
        U

    Reconstructing volSymmTensorFields

        shearStress

    Reconstructing volTensorFields

        grad(U)

    Reconstructing surfaceScalarFields

        phi
        alphaPhi0.bioink

Reconstructing point fields

No point fields

No lagrangian fields

Time = 5.05

Reconstructing FV fields

    Reconstructing volScalarFields

        nu1
        p_rgh
        strainRate
        p
        alpha.bioink

    Reconstructing volVectorFields

        wallShearStress
        U

    Reconstructing volSymmTensorFields

        shearStress

    Reconstructing volTensorFields

        grad(U)

    Reconstructing surfaceScalarFields

        phi
        alphaPhi0.bioink

Reconstructing point fields

No point fields

No lagrangian fields

Time = 5.1

Reconstructing FV fields

    Reconstructing volScalarFields

        nu1
        p_rgh
        strainRate
        p
        alpha.bioink

    Reconstructing volVectorFields

        wallShearStress
        U

    Reconstructing volSymmTensorFields

        shearStress

    Reconstructing volTensorFields

        grad(U)

    Reconstructing surfaceScalarFields

        phi
        alphaPhi0.bioink

Reconstructing point fields

No point fields

No lagrangian fields

Time = 5.15

Reconstructing FV fields

    Reconstructing volScalarFields

        nu1
        p_rgh
        strainRate
        p
        alpha.bioink

    Reconstructing volVectorFields

        wallShearStress
        U

    Reconstructing volSymmTensorFields

        shearStress

    Reconstructing volTensorFields

        grad(U)

    Reconstructing surfaceScalarFields

        phi
        alphaPhi0.bioink

Reconstructing point fields

No point fields

No lagrangian fields

Time = 5.2

Reconstructing FV fields

    Reconstructing volScalarFields

        nu1
        p_rgh
        strainRate
        p
        alpha.bioink

    Reconstructing volVectorFields

        wallShearStress
        U

    Reconstructing volSymmTensorFields

        shearStress

    Reconstructing volTensorFields

        grad(U)

    Reconstructing surfaceScalarFields

        phi
        alphaPhi0.bioink

Reconstructing point fields

No point fields

No lagrangian fields

Time = 5.25

Reconstructing FV fields

    Reconstructing volScalarFields

        nu1
        p_rgh
        strainRate
        p
        alpha.bioink

    Reconstructing volVectorFields

        wallShearStress
        U

    Reconstructing volSymmTensorFields

        shearStress

    Reconstructing volTensorFields

        grad(U)

    Reconstructing surfaceScalarFields

        phi
        alphaPhi0.bioink

Reconstructing point fields

No point fields

No lagrangian fields

Time = 5.3

Reconstructing FV fields

    Reconstructing volScalarFields

        nu1
        p_rgh
        strainRate
        p
        alpha.bioink

    Reconstructing volVectorFields

        wallShearStress
        U

    Reconstructing volSymmTensorFields

        shearStress

    Reconstructing volTensorFields

        grad(U)

    Reconstructing surfaceScalarFields

        phi
        alphaPhi0.bioink

Reconstructing point fields

No point fields

No lagrangian fields

Time = 5.35

Reconstructing FV fields

    Reconstructing volScalarFields

        nu1
        p_rgh
        strainRate
        p
        alpha.bioink

    Reconstructing volVectorFields

        wallShearStress
        U

    Reconstructing volSymmTensorFields

        shearStress

    Reconstructing volTensorFields

        grad(U)

    Reconstructing surfaceScalarFields

        phi
        alphaPhi0.bioink

Reconstructing point fields

No point fields

No lagrangian fields

Time = 5.4

Reconstructing FV fields

    Reconstructing volScalarFields

        nu1
        p_rgh
        strainRate
        p
        alpha.bioink

    Reconstructing volVectorFields

        wallShearStress
        U

    Reconstructing volSymmTensorFields

        shearStress

    Reconstructing volTensorFields

        grad(U)

    Reconstructing surfaceScalarFields

        phi
        alphaPhi0.bioink

Reconstructing point fields

No point fields

No lagrangian fields

Time = 5.45

Reconstructing FV fields

    Reconstructing volScalarFields

        nu1
        p_rgh
        strainRate
        p
        alpha.bioink

    Reconstructing volVectorFields

        wallShearStress
        U

    Reconstructing volSymmTensorFields

        shearStress

    Reconstructing volTensorFields

        grad(U)

    Reconstructing surfaceScalarFields

        phi
        alphaPhi0.bioink

Reconstructing point fields

No point fields

No lagrangian fields

Time = 5.5

Reconstructing FV fields

    Reconstructing volScalarFields

        nu1
        p_rgh
        strainRate
        p
        alpha.bioink

    Reconstructing volVectorFields

        wallShearStress
        U

    Reconstructing volSymmTensorFields

        shearStress

    Reconstructing volTensorFields

        grad(U)

    Reconstructing surfaceScalarFields

        phi
        alphaPhi0.bioink

Reconstructing point fields

No point fields

No lagrangian fields

Time = 5.55

Reconstructing FV fields

    Reconstructing volScalarFields

        nu1
        p_rgh
        strainRate
        p
        alpha.bioink

    Reconstructing volVectorFields

        wallShearStress
        U

    Reconstructing volSymmTensorFields

        shearStress

    Reconstructing volTensorFields

        grad(U)

    Reconstructing surfaceScalarFields

        phi
        alphaPhi0.bioink

Reconstructing point fields

No point fields

No lagrangian fields

Time = 5.6

Reconstructing FV fields

    Reconstructing volScalarFields

        nu1
        p_rgh
        strainRate
        p
        alpha.bioink

    Reconstructing volVectorFields

        wallShearStress
        U

    Reconstructing volSymmTensorFields

        shearStress

    Reconstructing volTensorFields

        grad(U)

    Reconstructing surfaceScalarFields

        phi
        alphaPhi0.bioink

Reconstructing point fields

No point fields

No lagrangian fields

Time = 5.65

Reconstructing FV fields

    Reconstructing volScalarFields

        nu1
        p_rgh
        strainRate
        p
        alpha.bioink

    Reconstructing volVectorFields

        wallShearStress
        U

    Reconstructing volSymmTensorFields

        shearStress

    Reconstructing volTensorFields

        grad(U)

    Reconstructing surfaceScalarFields

        phi
        alphaPhi0.bioink

Reconstructing point fields

No point fields

No lagrangian fields

Time = 5.7

Reconstructing FV fields

    Reconstructing volScalarFields

        nu1
        p_rgh
        strainRate
        p
        alpha.bioink

    Reconstructing volVectorFields

        wallShearStress
        U

    Reconstructing volSymmTensorFields

        shearStress

    Reconstructing volTensorFields

        grad(U)

    Reconstructing surfaceScalarFields

        phi
        alphaPhi0.bioink

Reconstructing point fields

No point fields

No lagrangian fields

Time = 5.75

Reconstructing FV fields

    Reconstructing volScalarFields

        nu1
        p_rgh
        strainRate
        p
        alpha.bioink

    Reconstructing volVectorFields

        wallShearStress
        U

    Reconstructing volSymmTensorFields

        shearStress

    Reconstructing volTensorFields

        grad(U)

    Reconstructing surfaceScalarFields

        phi
        alphaPhi0.bioink

Reconstructing point fields

No point fields

No lagrangian fields

Time = 5.8

Reconstructing FV fields

    Reconstructing volScalarFields

        nu1
        p_rgh
        strainRate
        p
        alpha.bioink

    Reconstructing volVectorFields

        wallShearStress
        U

    Reconstructing volSymmTensorFields

        shearStress

    Reconstructing volTensorFields

        grad(U)

    Reconstructing surfaceScalarFields

        phi
        alphaPhi0.bioink

Reconstructing point fields

No point fields

No lagrangian fields

Time = 5.85

Reconstructing FV fields

    Reconstructing volScalarFields

        nu1
        p_rgh
        strainRate
        p
        alpha.bioink

    Reconstructing volVectorFields

        wallShearStress
        U

    Reconstructing volSymmTensorFields

        shearStress

    Reconstructing volTensorFields

        grad(U)

    Reconstructing surfaceScalarFields

        phi
        alphaPhi0.bioink

Reconstructing point fields

No point fields

No lagrangian fields

Time = 5.9

Reconstructing FV fields

    Reconstructing volScalarFields

        nu1
        p_rgh
        strainRate
        p
        alpha.bioink

    Reconstructing volVectorFields

        wallShearStress
        U

    Reconstructing volSymmTensorFields

        shearStress

    Reconstructing volTensorFields

        grad(U)

    Reconstructing surfaceScalarFields

        phi
        alphaPhi0.bioink

Reconstructing point fields

No point fields

No lagrangian fields

Time = 5.95

Reconstructing FV fields

    Reconstructing volScalarFields

        nu1
        p_rgh
        strainRate
        p
        alpha.bioink

    Reconstructing volVectorFields

        wallShearStress
        U

    Reconstructing volSymmTensorFields

        shearStress

    Reconstructing volTensorFields

        grad(U)

    Reconstructing surfaceScalarFields

        phi
        alphaPhi0.bioink

Reconstructing point fields

No point fields

No lagrangian fields

Time = 6

Reconstructing FV fields

    Reconstructing volScalarFields

        nu1
        p_rgh
        strainRate
        p
        alpha.bioink

    Reconstructing volVectorFields

        wallShearStress
        U

    Reconstructing volSymmTensorFields

        shearStress

    Reconstructing volTensorFields

        grad(U)

    Reconstructing surfaceScalarFields

        phi
        alphaPhi0.bioink

Reconstructing point fields

No point fields

No lagrangian fields

Time = 6.05

Reconstructing FV fields

    Reconstructing volScalarFields

        nu1
        p_rgh
        strainRate
        p
        alpha.bioink

    Reconstructing volVectorFields

        wallShearStress
        U

    Reconstructing volSymmTensorFields

        shearStress

    Reconstructing volTensorFields

        grad(U)

    Reconstructing surfaceScalarFields

        phi
        alphaPhi0.bioink

Reconstructing point fields

No point fields

No lagrangian fields

Time = 6.1

Reconstructing FV fields

    Reconstructing volScalarFields

        nu1
        p_rgh
        strainRate
        p
        alpha.bioink

    Reconstructing volVectorFields

        wallShearStress
        U

    Reconstructing volSymmTensorFields

        shearStress

    Reconstructing volTensorFields

        grad(U)

    Reconstructing surfaceScalarFields

        phi
        alphaPhi0.bioink

Reconstructing point fields

No point fields

No lagrangian fields

Time = 6.15

Reconstructing FV fields

    Reconstructing volScalarFields

        nu1
        p_rgh
        strainRate
        p
        alpha.bioink

    Reconstructing volVectorFields

        wallShearStress
        U

    Reconstructing volSymmTensorFields

        shearStress

    Reconstructing volTensorFields

        grad(U)

    Reconstructing surfaceScalarFields

        phi
        alphaPhi0.bioink

Reconstructing point fields

No point fields

No lagrangian fields

Time = 6.2

Reconstructing FV fields

    Reconstructing volScalarFields

        nu1
        p_rgh
        strainRate
        p
        alpha.bioink

    Reconstructing volVectorFields

        wallShearStress
        U

    Reconstructing volSymmTensorFields

        shearStress

    Reconstructing volTensorFields

        grad(U)

    Reconstructing surfaceScalarFields

        phi
        alphaPhi0.bioink

Reconstructing point fields

No point fields

No lagrangian fields

Time = 6.25

Reconstructing FV fields

    Reconstructing volScalarFields

        nu1
        p_rgh
        strainRate
        p
        alpha.bioink

    Reconstructing volVectorFields

        wallShearStress
        U

    Reconstructing volSymmTensorFields

        shearStress

    Reconstructing volTensorFields

        grad(U)

    Reconstructing surfaceScalarFields

        phi
        alphaPhi0.bioink

Reconstructing point fields

No point fields

No lagrangian fields

Time = 6.3

Reconstructing FV fields

    Reconstructing volScalarFields

        nu1
        p_rgh
        strainRate
        p
        alpha.bioink

    Reconstructing volVectorFields

        wallShearStress
        U

    Reconstructing volSymmTensorFields

        shearStress

    Reconstructing volTensorFields

        grad(U)

    Reconstructing surfaceScalarFields

        phi
        alphaPhi0.bioink

Reconstructing point fields

No point fields

No lagrangian fields

Time = 6.35

Reconstructing FV fields

    Reconstructing volScalarFields

        nu1
        p_rgh
        strainRate
        p
        alpha.bioink

    Reconstructing volVectorFields

        wallShearStress
        U

    Reconstructing volSymmTensorFields

        shearStress

    Reconstructing volTensorFields

        grad(U)

    Reconstructing surfaceScalarFields

        phi
        alphaPhi0.bioink

Reconstructing point fields

No point fields

No lagrangian fields

Time = 6.4

Reconstructing FV fields

    Reconstructing volScalarFields

        nu1
        p_rgh
        strainRate
        p
        alpha.bioink

    Reconstructing volVectorFields

        wallShearStress
        U

    Reconstructing volSymmTensorFields

        shearStress

    Reconstructing volTensorFields

        grad(U)

    Reconstructing surfaceScalarFields

        phi
        alphaPhi0.bioink

Reconstructing point fields

No point fields

No lagrangian fields

Time = 6.45

Reconstructing FV fields

    Reconstructing volScalarFields

        nu1
        p_rgh
        strainRate
        p
        alpha.bioink

    Reconstructing volVectorFields

        wallShearStress
        U

    Reconstructing volSymmTensorFields

        shearStress

    Reconstructing volTensorFields

        grad(U)

    Reconstructing surfaceScalarFields

        phi
        alphaPhi0.bioink

Reconstructing point fields

No point fields

No lagrangian fields

Time = 6.5

Reconstructing FV fields

    Reconstructing volScalarFields

        nu1
        p_rgh
        strainRate
        p
        alpha.bioink

    Reconstructing volVectorFields

        wallShearStress
        U

    Reconstructing volSymmTensorFields

        shearStress

    Reconstructing volTensorFields

        grad(U)

    Reconstructing surfaceScalarFields

        phi
        alphaPhi0.bioink

Reconstructing point fields

No point fields

No lagrangian fields

Time = 6.55

Reconstructing FV fields

    Reconstructing volScalarFields

        nu1
        p_rgh
        strainRate
        p
        alpha.bioink

    Reconstructing volVectorFields

        wallShearStress
        U

    Reconstructing volSymmTensorFields

        shearStress

    Reconstructing volTensorFields

        grad(U)

    Reconstructing surfaceScalarFields

        phi
        alphaPhi0.bioink

Reconstructing point fields

No point fields

No lagrangian fields

Time = 6.6

Reconstructing FV fields

    Reconstructing volScalarFields

        nu1
        p_rgh
        strainRate
        p
        alpha.bioink

    Reconstructing volVectorFields

        wallShearStress
        U

    Reconstructing volSymmTensorFields

        shearStress

    Reconstructing volTensorFields

        grad(U)

    Reconstructing surfaceScalarFields

        phi
        alphaPhi0.bioink

Reconstructing point fields

No point fields

No lagrangian fields

Time = 6.65

Reconstructing FV fields

    Reconstructing volScalarFields

        nu1
        p_rgh
        strainRate
        p
        alpha.bioink

    Reconstructing volVectorFields

        wallShearStress
        U

    Reconstructing volSymmTensorFields

        shearStress

    Reconstructing volTensorFields

        grad(U)

    Reconstructing surfaceScalarFields

        phi
        alphaPhi0.bioink

Reconstructing point fields

No point fields

No lagrangian fields

Time = 6.7

Reconstructing FV fields

    Reconstructing volScalarFields

        nu1
        p_rgh
        strainRate
        p
        alpha.bioink

    Reconstructing volVectorFields

        wallShearStress
        U

    Reconstructing volSymmTensorFields

        shearStress

    Reconstructing volTensorFields

        grad(U)

    Reconstructing surfaceScalarFields

        phi
        alphaPhi0.bioink

Reconstructing point fields

No point fields

No lagrangian fields

Time = 6.75

Reconstructing FV fields

    Reconstructing volScalarFields

        nu1
        p_rgh
        strainRate
        p
        alpha.bioink

    Reconstructing volVectorFields

        wallShearStress
        U

    Reconstructing volSymmTensorFields

        shearStress

    Reconstructing volTensorFields

        grad(U)

    Reconstructing surfaceScalarFields

        phi
        alphaPhi0.bioink

Reconstructing point fields

No point fields

No lagrangian fields

Time = 6.8

Reconstructing FV fields

    Reconstructing volScalarFields

        nu1
        p_rgh
        strainRate
        p
        alpha.bioink

    Reconstructing volVectorFields

        wallShearStress
        U

    Reconstructing volSymmTensorFields

        shearStress

    Reconstructing volTensorFields

        grad(U)

    Reconstructing surfaceScalarFields

        phi
        alphaPhi0.bioink

Reconstructing point fields

No point fields

No lagrangian fields

Time = 6.85

Reconstructing FV fields

    Reconstructing volScalarFields

        nu1
        p_rgh
        strainRate
        p
        alpha.bioink

    Reconstructing volVectorFields

        wallShearStress
        U

    Reconstructing volSymmTensorFields

        shearStress

    Reconstructing volTensorFields

        grad(U)

    Reconstructing surfaceScalarFields

        phi
        alphaPhi0.bioink

Reconstructing point fields

No point fields

No lagrangian fields

Time = 6.9

Reconstructing FV fields

    Reconstructing volScalarFields

        nu1
        p_rgh
        strainRate
        p
        alpha.bioink

    Reconstructing volVectorFields

        wallShearStress
        U

    Reconstructing volSymmTensorFields

        shearStress

    Reconstructing volTensorFields

        grad(U)

    Reconstructing surfaceScalarFields

        phi
        alphaPhi0.bioink

Reconstructing point fields

No point fields

No lagrangian fields

Time = 6.95

Reconstructing FV fields

    Reconstructing volScalarFields

        nu1
        p_rgh
        strainRate
        p
        alpha.bioink

    Reconstructing volVectorFields

        wallShearStress
        U

    Reconstructing volSymmTensorFields

        shearStress

    Reconstructing volTensorFields

        grad(U)

    Reconstructing surfaceScalarFields

        phi
        alphaPhi0.bioink

Reconstructing point fields

No point fields

No lagrangian fields

Time = 7

Reconstructing FV fields

    Reconstructing volScalarFields

        nu1
        p_rgh
        strainRate
        p
        alpha.bioink

    Reconstructing volVectorFields

        wallShearStress
        U

    Reconstructing volSymmTensorFields

        shearStress

    Reconstructing volTensorFields

        grad(U)

    Reconstructing surfaceScalarFields

        phi
        alphaPhi0.bioink

Reconstructing point fields

No point fields

No lagrangian fields

Time = 7.05

Reconstructing FV fields

    Reconstructing volScalarFields

        nu1
        p_rgh
        strainRate
        p
        alpha.bioink

    Reconstructing volVectorFields

        wallShearStress
        U

    Reconstructing volSymmTensorFields

        shearStress

    Reconstructing volTensorFields

        grad(U)

    Reconstructing surfaceScalarFields

        phi
        alphaPhi0.bioink

Reconstructing point fields

No point fields

No lagrangian fields

Time = 7.1

Reconstructing FV fields

    Reconstructing volScalarFields

        nu1
        p_rgh
        strainRate
        p
        alpha.bioink

    Reconstructing volVectorFields

        wallShearStress
        U

    Reconstructing volSymmTensorFields

        shearStress

    Reconstructing volTensorFields

        grad(U)

    Reconstructing surfaceScalarFields

        phi
        alphaPhi0.bioink

Reconstructing point fields

No point fields

No lagrangian fields

Time = 7.15

Reconstructing FV fields

    Reconstructing volScalarFields

        nu1
        p_rgh
        strainRate
        p
        alpha.bioink

    Reconstructing volVectorFields

        wallShearStress
        U

    Reconstructing volSymmTensorFields

        shearStress

    Reconstructing volTensorFields

        grad(U)

    Reconstructing surfaceScalarFields

        phi
        alphaPhi0.bioink

Reconstructing point fields

No point fields

No lagrangian fields

Time = 7.2

Reconstructing FV fields

    Reconstructing volScalarFields

        nu1
        p_rgh
        strainRate
        p
        alpha.bioink

    Reconstructing volVectorFields

        wallShearStress
        U

    Reconstructing volSymmTensorFields

        shearStress

    Reconstructing volTensorFields

        grad(U)

    Reconstructing surfaceScalarFields

        phi
        alphaPhi0.bioink

Reconstructing point fields

No point fields

No lagrangian fields

Time = 7.25

Reconstructing FV fields

    Reconstructing volScalarFields

        nu1
        p_rgh
        strainRate
        p
        alpha.bioink

    Reconstructing volVectorFields

        wallShearStress
        U

    Reconstructing volSymmTensorFields

        shearStress

    Reconstructing volTensorFields

        grad(U)

    Reconstructing surfaceScalarFields

        phi
        alphaPhi0.bioink

Reconstructing point fields

No point fields

No lagrangian fields

Time = 7.3

Reconstructing FV fields

    Reconstructing volScalarFields

        nu1
        p_rgh
        strainRate
        p
        alpha.bioink

    Reconstructing volVectorFields

        wallShearStress
        U

    Reconstructing volSymmTensorFields

        shearStress

    Reconstructing volTensorFields

        grad(U)

    Reconstructing surfaceScalarFields

        phi
        alphaPhi0.bioink

Reconstructing point fields

No point fields

No lagrangian fields

Time = 7.35

Reconstructing FV fields

    Reconstructing volScalarFields

        nu1
        p_rgh
        strainRate
        p
        alpha.bioink

    Reconstructing volVectorFields

        wallShearStress
        U

    Reconstructing volSymmTensorFields

        shearStress

    Reconstructing volTensorFields

        grad(U)

    Reconstructing surfaceScalarFields

        phi
        alphaPhi0.bioink

Reconstructing point fields

No point fields

No lagrangian fields

Time = 7.4

Reconstructing FV fields

    Reconstructing volScalarFields

        nu1
        p_rgh
        strainRate
        p
        alpha.bioink

    Reconstructing volVectorFields

        wallShearStress
        U

    Reconstructing volSymmTensorFields

        shearStress

    Reconstructing volTensorFields

        grad(U)

    Reconstructing surfaceScalarFields

        phi
        alphaPhi0.bioink

Reconstructing point fields

No point fields

No lagrangian fields

Time = 7.45

Reconstructing FV fields

    Reconstructing volScalarFields

        nu1
        p_rgh
        strainRate
        p
        alpha.bioink

    Reconstructing volVectorFields

        wallShearStress
        U

    Reconstructing volSymmTensorFields

        shearStress

    Reconstructing volTensorFields

        grad(U)

    Reconstructing surfaceScalarFields

        phi
        alphaPhi0.bioink

Reconstructing point fields

No point fields

No lagrangian fields

Time = 7.5

Reconstructing FV fields

    Reconstructing volScalarFields

        nu1
        p_rgh
        strainRate
        p
        alpha.bioink

    Reconstructing volVectorFields

        wallShearStress
        U

    Reconstructing volSymmTensorFields

        shearStress

    Reconstructing volTensorFields

        grad(U)

    Reconstructing surfaceScalarFields

        phi
        alphaPhi0.bioink

Reconstructing point fields

No point fields

No lagrangian fields

Time = 7.55

Reconstructing FV fields

    Reconstructing volScalarFields

        nu1
        p_rgh
        strainRate
        p
        alpha.bioink

    Reconstructing volVectorFields

        wallShearStress
        U

    Reconstructing volSymmTensorFields

        shearStress

    Reconstructing volTensorFields

        grad(U)

    Reconstructing surfaceScalarFields

        phi
        alphaPhi0.bioink

Reconstructing point fields

No point fields

No lagrangian fields

Time = 7.6

Reconstructing FV fields

    Reconstructing volScalarFields

        nu1
        p_rgh
        strainRate
        p
        alpha.bioink

    Reconstructing volVectorFields

        wallShearStress
        U

    Reconstructing volSymmTensorFields

        shearStress

    Reconstructing volTensorFields

        grad(U)

    Reconstructing surfaceScalarFields

        phi
        alphaPhi0.bioink

Reconstructing point fields

No point fields

No lagrangian fields

Time = 7.65

Reconstructing FV fields

    Reconstructing volScalarFields

        nu1
        p_rgh
        strainRate
        p
        alpha.bioink

    Reconstructing volVectorFields

        wallShearStress
        U

    Reconstructing volSymmTensorFields

        shearStress

    Reconstructing volTensorFields

        grad(U)

    Reconstructing surfaceScalarFields

        phi
        alphaPhi0.bioink

Reconstructing point fields

No point fields

No lagrangian fields

Time = 7.7

Reconstructing FV fields

    Reconstructing volScalarFields

        nu1
        p_rgh
        strainRate
        p
        alpha.bioink

    Reconstructing volVectorFields

        wallShearStress
        U

    Reconstructing volSymmTensorFields

        shearStress

    Reconstructing volTensorFields

        grad(U)

    Reconstructing surfaceScalarFields

        phi
        alphaPhi0.bioink

Reconstructing point fields

No point fields

No lagrangian fields

Time = 7.75

Reconstructing FV fields

    Reconstructing volScalarFields

        nu1
        p_rgh
        strainRate
        p
        alpha.bioink

    Reconstructing volVectorFields

        wallShearStress
        U

    Reconstructing volSymmTensorFields

        shearStress

    Reconstructing volTensorFields

        grad(U)

    Reconstructing surfaceScalarFields

        phi
        alphaPhi0.bioink

Reconstructing point fields

No point fields

No lagrangian fields

Time = 7.8

Reconstructing FV fields

    Reconstructing volScalarFields

        nu1
        p_rgh
        strainRate
        p
        alpha.bioink

    Reconstructing volVectorFields

        wallShearStress
        U

    Reconstructing volSymmTensorFields

        shearStress

    Reconstructing volTensorFields

        grad(U)

    Reconstructing surfaceScalarFields

        phi
        alphaPhi0.bioink

Reconstructing point fields

No point fields

No lagrangian fields

Time = 7.85

Reconstructing FV fields

    Reconstructing volScalarFields

        nu1
        p_rgh
        strainRate
        p
        alpha.bioink

    Reconstructing volVectorFields

        wallShearStress
        U

    Reconstructing volSymmTensorFields

        shearStress

    Reconstructing volTensorFields

        grad(U)

    Reconstructing surfaceScalarFields

        phi
        alphaPhi0.bioink

Reconstructing point fields

No point fields

No lagrangian fields

Time = 7.9

Reconstructing FV fields

    Reconstructing volScalarFields

        nu1
        p_rgh
        strainRate
        p
        alpha.bioink

    Reconstructing volVectorFields

        wallShearStress
        U

    Reconstructing volSymmTensorFields

        shearStress

    Reconstructing volTensorFields

        grad(U)

    Reconstructing surfaceScalarFields

        phi
        alphaPhi0.bioink

Reconstructing point fields

No point fields

No lagrangian fields

Time = 7.95

Reconstructing FV fields

    Reconstructing volScalarFields

        nu1
        p_rgh
        strainRate
        p
        alpha.bioink

    Reconstructing volVectorFields

        wallShearStress
        U

    Reconstructing volSymmTensorFields

        shearStress

    Reconstructing volTensorFields

        grad(U)

    Reconstructing surfaceScalarFields

        phi
        alphaPhi0.bioink

Reconstructing point fields

No point fields

No lagrangian fields

Time = 8

Reconstructing FV fields

    Reconstructing volScalarFields

        nu1
        p_rgh
        strainRate
        p
        alpha.bioink

    Reconstructing volVectorFields

        wallShearStress
        U

    Reconstructing volSymmTensorFields

        shearStress

    Reconstructing volTensorFields

        grad(U)

    Reconstructing surfaceScalarFields

        phi
        alphaPhi0.bioink

Reconstructing point fields

No point fields

No lagrangian fields

Time = 8.05

Reconstructing FV fields

    Reconstructing volScalarFields

        nu1
        p_rgh
        strainRate
        p
        alpha.bioink

    Reconstructing volVectorFields

        wallShearStress
        U

    Reconstructing volSymmTensorFields

        shearStress

    Reconstructing volTensorFields

        grad(U)

    Reconstructing surfaceScalarFields

        phi
        alphaPhi0.bioink

Reconstructing point fields

No point fields

No lagrangian fields

Time = 8.1

Reconstructing FV fields

    Reconstructing volScalarFields

        nu1
        p_rgh
        strainRate
        p
        alpha.bioink

    Reconstructing volVectorFields

        wallShearStress
        U

    Reconstructing volSymmTensorFields

        shearStress

    Reconstructing volTensorFields

        grad(U)

    Reconstructing surfaceScalarFields

        phi
        alphaPhi0.bioink

Reconstructing point fields

No point fields

No lagrangian fields

Time = 8.15

Reconstructing FV fields

    Reconstructing volScalarFields

        nu1
        p_rgh
        strainRate
        p
        alpha.bioink

    Reconstructing volVectorFields

        wallShearStress
        U

    Reconstructing volSymmTensorFields

        shearStress

    Reconstructing volTensorFields

        grad(U)

    Reconstructing surfaceScalarFields

        phi
        alphaPhi0.bioink

Reconstructing point fields

No point fields

No lagrangian fields

Time = 8.2

Reconstructing FV fields

    Reconstructing volScalarFields

        nu1
        p_rgh
        strainRate
        p
        alpha.bioink

    Reconstructing volVectorFields

        wallShearStress
        U

    Reconstructing volSymmTensorFields

        shearStress

    Reconstructing volTensorFields

        grad(U)

    Reconstructing surfaceScalarFields

        phi
        alphaPhi0.bioink

Reconstructing point fields

No point fields

No lagrangian fields

Time = 8.25

Reconstructing FV fields

    Reconstructing volScalarFields

        nu1
        p_rgh
        strainRate
        p
        alpha.bioink

    Reconstructing volVectorFields

        wallShearStress
        U

    Reconstructing volSymmTensorFields

        shearStress

    Reconstructing volTensorFields

        grad(U)

    Reconstructing surfaceScalarFields

        phi
        alphaPhi0.bioink

Reconstructing point fields

No point fields

No lagrangian fields

Time = 8.3

Reconstructing FV fields

    Reconstructing volScalarFields

        nu1
        p_rgh
        strainRate
        p
        alpha.bioink

    Reconstructing volVectorFields

        wallShearStress
        U

    Reconstructing volSymmTensorFields

        shearStress

    Reconstructing volTensorFields

        grad(U)

    Reconstructing surfaceScalarFields

        phi
        alphaPhi0.bioink

Reconstructing point fields

No point fields

No lagrangian fields

Time = 8.35

Reconstructing FV fields

    Reconstructing volScalarFields

        nu1
        p_rgh
        strainRate
        p
        alpha.bioink

    Reconstructing volVectorFields

        wallShearStress
        U

    Reconstructing volSymmTensorFields

        shearStress

    Reconstructing volTensorFields

        grad(U)

    Reconstructing surfaceScalarFields

        phi
        alphaPhi0.bioink

Reconstructing point fields

No point fields

No lagrangian fields

Time = 8.4

Reconstructing FV fields

    Reconstructing volScalarFields

        nu1
        p_rgh
        strainRate
        p
        alpha.bioink

    Reconstructing volVectorFields

        wallShearStress
        U

    Reconstructing volSymmTensorFields

        shearStress

    Reconstructing volTensorFields

        grad(U)

    Reconstructing surfaceScalarFields

        phi
        alphaPhi0.bioink

Reconstructing point fields

No point fields

No lagrangian fields

Time = 8.45

Reconstructing FV fields

    Reconstructing volScalarFields

        nu1
        p_rgh
        strainRate
        p
        alpha.bioink

    Reconstructing volVectorFields

        wallShearStress
        U

    Reconstructing volSymmTensorFields

        shearStress

    Reconstructing volTensorFields

        grad(U)

    Reconstructing surfaceScalarFields

        phi
        alphaPhi0.bioink

Reconstructing point fields

No point fields

No lagrangian fields

Time = 8.5

Reconstructing FV fields

    Reconstructing volScalarFields

        nu1
        p_rgh
        strainRate
        p
        alpha.bioink

    Reconstructing volVectorFields

        wallShearStress
        U

    Reconstructing volSymmTensorFields

        shearStress

    Reconstructing volTensorFields

        grad(U)

    Reconstructing surfaceScalarFields

        phi
        alphaPhi0.bioink

Reconstructing point fields

No point fields

No lagrangian fields

Time = 8.55

Reconstructing FV fields

    Reconstructing volScalarFields

        nu1
        p_rgh
        strainRate
        p
        alpha.bioink

    Reconstructing volVectorFields

        wallShearStress
        U

    Reconstructing volSymmTensorFields

        shearStress

    Reconstructing volTensorFields

        grad(U)

    Reconstructing surfaceScalarFields

        phi
        alphaPhi0.bioink

Reconstructing point fields

No point fields

No lagrangian fields

Time = 8.6

Reconstructing FV fields

    Reconstructing volScalarFields

        nu1
        p_rgh
        strainRate
        p
        alpha.bioink

    Reconstructing volVectorFields

        wallShearStress
        U

    Reconstructing volSymmTensorFields

        shearStress

    Reconstructing volTensorFields

        grad(U)

    Reconstructing surfaceScalarFields

        phi
        alphaPhi0.bioink

Reconstructing point fields

No point fields

No lagrangian fields

Time = 8.65

Reconstructing FV fields

    Reconstructing volScalarFields

        nu1
        p_rgh
        strainRate
        p
        alpha.bioink

    Reconstructing volVectorFields

        wallShearStress
        U

    Reconstructing volSymmTensorFields

        shearStress

    Reconstructing volTensorFields

        grad(U)

    Reconstructing surfaceScalarFields

        phi
        alphaPhi0.bioink

Reconstructing point fields

No point fields

No lagrangian fields

Time = 8.7

Reconstructing FV fields

    Reconstructing volScalarFields

        nu1
        p_rgh
        strainRate
        p
        alpha.bioink

    Reconstructing volVectorFields

        wallShearStress
        U

    Reconstructing volSymmTensorFields

        shearStress

    Reconstructing volTensorFields

        grad(U)

    Reconstructing surfaceScalarFields

        phi
        alphaPhi0.bioink

Reconstructing point fields

No point fields

No lagrangian fields

Time = 8.75

Reconstructing FV fields

    Reconstructing volScalarFields

        nu1
        p_rgh
        strainRate
        p
        alpha.bioink

    Reconstructing volVectorFields

        wallShearStress
        U

    Reconstructing volSymmTensorFields

        shearStress

    Reconstructing volTensorFields

        grad(U)

    Reconstructing surfaceScalarFields

        phi
        alphaPhi0.bioink

Reconstructing point fields

No point fields

No lagrangian fields

Time = 8.8

Reconstructing FV fields

    Reconstructing volScalarFields

        nu1
        p_rgh
        strainRate
        p
        alpha.bioink

    Reconstructing volVectorFields

        wallShearStress
        U

    Reconstructing volSymmTensorFields

        shearStress

    Reconstructing volTensorFields

        grad(U)

    Reconstructing surfaceScalarFields

        phi
        alphaPhi0.bioink

Reconstructing point fields

No point fields

No lagrangian fields

Time = 8.85

Reconstructing FV fields

    Reconstructing volScalarFields

        nu1
        p_rgh
        strainRate
        p
        alpha.bioink

    Reconstructing volVectorFields

        wallShearStress
        U

    Reconstructing volSymmTensorFields

        shearStress

    Reconstructing volTensorFields

        grad(U)

    Reconstructing surfaceScalarFields

        phi
        alphaPhi0.bioink

Reconstructing point fields

No point fields

No lagrangian fields

Time = 8.9

Reconstructing FV fields

    Reconstructing volScalarFields

        nu1
        p_rgh
        strainRate
        p
        alpha.bioink

    Reconstructing volVectorFields

        wallShearStress
        U

    Reconstructing volSymmTensorFields

        shearStress

    Reconstructing volTensorFields

        grad(U)

    Reconstructing surfaceScalarFields

        phi
        alphaPhi0.bioink

Reconstructing point fields

No point fields

No lagrangian fields

Time = 8.95

Reconstructing FV fields

    Reconstructing volScalarFields

        nu1
        p_rgh
        strainRate
        p
        alpha.bioink

    Reconstructing volVectorFields

        wallShearStress
        U

    Reconstructing volSymmTensorFields

        shearStress

    Reconstructing volTensorFields

        grad(U)

    Reconstructing surfaceScalarFields

        phi
        alphaPhi0.bioink

Reconstructing point fields

No point fields

No lagrangian fields

Time = 9

Reconstructing FV fields

    Reconstructing volScalarFields

        nu1
        p_rgh
        strainRate
        p
        alpha.bioink

    Reconstructing volVectorFields

        wallShearStress
        U

    Reconstructing volSymmTensorFields

        shearStress

    Reconstructing volTensorFields

        grad(U)

    Reconstructing surfaceScalarFields

        phi
        alphaPhi0.bioink

Reconstructing point fields

No point fields

No lagrangian fields

Time = 9.05

Reconstructing FV fields

    Reconstructing volScalarFields

        nu1
        p_rgh
        strainRate
        p
        alpha.bioink

    Reconstructing volVectorFields

        wallShearStress
        U

    Reconstructing volSymmTensorFields

        shearStress

    Reconstructing volTensorFields

        grad(U)

    Reconstructing surfaceScalarFields

        phi
        alphaPhi0.bioink

Reconstructing point fields

No point fields

No lagrangian fields

Time = 9.1

Reconstructing FV fields

    Reconstructing volScalarFields

        nu1
        p_rgh
        strainRate
        p
        alpha.bioink

    Reconstructing volVectorFields

        wallShearStress
        U

    Reconstructing volSymmTensorFields

        shearStress

    Reconstructing volTensorFields

        grad(U)

    Reconstructing surfaceScalarFields

        phi
        alphaPhi0.bioink

Reconstructing point fields

No point fields

No lagrangian fields

Time = 9.15

Reconstructing FV fields

    Reconstructing volScalarFields

        nu1
        p_rgh
        strainRate
        p
        alpha.bioink

    Reconstructing volVectorFields

        wallShearStress
        U

    Reconstructing volSymmTensorFields

        shearStress

    Reconstructing volTensorFields

        grad(U)

    Reconstructing surfaceScalarFields

        phi
        alphaPhi0.bioink

Reconstructing point fields

No point fields

No lagrangian fields

Time = 9.2

Reconstructing FV fields

    Reconstructing volScalarFields

        nu1
        p_rgh
        strainRate
        p
        alpha.bioink

    Reconstructing volVectorFields

        wallShearStress
        U

    Reconstructing volSymmTensorFields

        shearStress

    Reconstructing volTensorFields

        grad(U)

    Reconstructing surfaceScalarFields

        phi
        alphaPhi0.bioink

Reconstructing point fields

No point fields

No lagrangian fields

Time = 9.25

Reconstructing FV fields

    Reconstructing volScalarFields

        nu1
        p_rgh
        strainRate
        p
        alpha.bioink

    Reconstructing volVectorFields

        wallShearStress
        U

    Reconstructing volSymmTensorFields

        shearStress

    Reconstructing volTensorFields

        grad(U)

    Reconstructing surfaceScalarFields

        phi
        alphaPhi0.bioink

Reconstructing point fields

No point fields

No lagrangian fields

Time = 9.3

Reconstructing FV fields

    Reconstructing volScalarFields

        nu1
        p_rgh
        strainRate
        p
        alpha.bioink

    Reconstructing volVectorFields

        wallShearStress
        U

    Reconstructing volSymmTensorFields

        shearStress

    Reconstructing volTensorFields

        grad(U)

    Reconstructing surfaceScalarFields

        phi
        alphaPhi0.bioink

Reconstructing point fields

No point fields

No lagrangian fields

Time = 9.35

Reconstructing FV fields

    Reconstructing volScalarFields

        nu1
        p_rgh
        strainRate
        p
        alpha.bioink

    Reconstructing volVectorFields

        wallShearStress
        U

    Reconstructing volSymmTensorFields

        shearStress

    Reconstructing volTensorFields

        grad(U)

    Reconstructing surfaceScalarFields

        phi
        alphaPhi0.bioink

Reconstructing point fields

No point fields

No lagrangian fields

Time = 9.4

Reconstructing FV fields

    Reconstructing volScalarFields

        nu1
        p_rgh
        strainRate
        p
        alpha.bioink

    Reconstructing volVectorFields

        wallShearStress
        U

    Reconstructing volSymmTensorFields

        shearStress

    Reconstructing volTensorFields

        grad(U)

    Reconstructing surfaceScalarFields

        phi
        alphaPhi0.bioink

Reconstructing point fields

No point fields

No lagrangian fields

Time = 9.45

Reconstructing FV fields

    Reconstructing volScalarFields

        nu1
        p_rgh
        strainRate
        p
        alpha.bioink

    Reconstructing volVectorFields

        wallShearStress
        U

    Reconstructing volSymmTensorFields

        shearStress

    Reconstructing volTensorFields

        grad(U)

    Reconstructing surfaceScalarFields

        phi
        alphaPhi0.bioink

Reconstructing point fields

No point fields

No lagrangian fields

Time = 9.5

Reconstructing FV fields

    Reconstructing volScalarFields

        nu1
        p_rgh
        strainRate
        p
        alpha.bioink

    Reconstructing volVectorFields

        wallShearStress
        U

    Reconstructing volSymmTensorFields

        shearStress

    Reconstructing volTensorFields

        grad(U)

    Reconstructing surfaceScalarFields

        phi
        alphaPhi0.bioink

Reconstructing point fields

No point fields

No lagrangian fields

Time = 9.55

Reconstructing FV fields

    Reconstructing volScalarFields

        nu1
        p_rgh
        strainRate
        p
        alpha.bioink

    Reconstructing volVectorFields

        wallShearStress
        U

    Reconstructing volSymmTensorFields

        shearStress

    Reconstructing volTensorFields

        grad(U)

    Reconstructing surfaceScalarFields

        phi
        alphaPhi0.bioink

Reconstructing point fields

No point fields

No lagrangian fields

Time = 9.6

Reconstructing FV fields

    Reconstructing volScalarFields

        nu1
        p_rgh
        strainRate
        p
        alpha.bioink

    Reconstructing volVectorFields

        wallShearStress
        U

    Reconstructing volSymmTensorFields

        shearStress

    Reconstructing volTensorFields

        grad(U)

    Reconstructing surfaceScalarFields

        phi
        alphaPhi0.bioink

Reconstructing point fields

No point fields

No lagrangian fields

Time = 9.65

Reconstructing FV fields

    Reconstructing volScalarFields

        nu1
        p_rgh
        strainRate
        p
        alpha.bioink

    Reconstructing volVectorFields

        wallShearStress
        U

    Reconstructing volSymmTensorFields

        shearStress

    Reconstructing volTensorFields

        grad(U)

    Reconstructing surfaceScalarFields

        phi
        alphaPhi0.bioink

Reconstructing point fields

No point fields

No lagrangian fields

Time = 9.7

Reconstructing FV fields

    Reconstructing volScalarFields

        nu1
        p_rgh
        strainRate
        p
        alpha.bioink

    Reconstructing volVectorFields

        wallShearStress
        U

    Reconstructing volSymmTensorFields

        shearStress

    Reconstructing volTensorFields

        grad(U)

    Reconstructing surfaceScalarFields

        phi
        alphaPhi0.bioink

Reconstructing point fields

No point fields

No lagrangian fields

Time = 9.75

Reconstructing FV fields

    Reconstructing volScalarFields

        nu1
        p_rgh
        strainRate
        p
        alpha.bioink

    Reconstructing volVectorFields

        wallShearStress
        U

    Reconstructing volSymmTensorFields

        shearStress

    Reconstructing volTensorFields

        grad(U)

    Reconstructing surfaceScalarFields

        phi
        alphaPhi0.bioink

Reconstructing point fields

No point fields

No lagrangian fields

Time = 9.8

Reconstructing FV fields

    Reconstructing volScalarFields

        nu1
        p_rgh
        strainRate
        p
        alpha.bioink

    Reconstructing volVectorFields

        wallShearStress
        U

    Reconstructing volSymmTensorFields

        shearStress

    Reconstructing volTensorFields

        grad(U)

    Reconstructing surfaceScalarFields

        phi
        alphaPhi0.bioink

Reconstructing point fields

No point fields

No lagrangian fields

Time = 9.85

Reconstructing FV fields

    Reconstructing volScalarFields

        nu1
        p_rgh
        strainRate
        p
        alpha.bioink

    Reconstructing volVectorFields

        wallShearStress
        U

    Reconstructing volSymmTensorFields

        shearStress

    Reconstructing volTensorFields

        grad(U)

    Reconstructing surfaceScalarFields

        phi
        alphaPhi0.bioink

Reconstructing point fields

No point fields

No lagrangian fields

Time = 9.9

Reconstructing FV fields

    Reconstructing volScalarFields

        nu1
        p_rgh
        strainRate
        p
        alpha.bioink

    Reconstructing volVectorFields

        wallShearStress
        U

    Reconstructing volSymmTensorFields

        shearStress

    Reconstructing volTensorFields

        grad(U)

    Reconstructing surfaceScalarFields

        phi
        alphaPhi0.bioink

Reconstructing point fields

No point fields

No lagrangian fields

Time = 9.95

Reconstructing FV fields

    Reconstructing volScalarFields

        nu1
        p_rgh
        strainRate
        p
        alpha.bioink

    Reconstructing volVectorFields

        wallShearStress
        U

    Reconstructing volSymmTensorFields

        shearStress

    Reconstructing volTensorFields

        grad(U)

    Reconstructing surfaceScalarFields

        phi
        alphaPhi0.bioink

Reconstructing point fields

No point fields

No lagrangian fields

Time = 10

Reconstructing FV fields

    Reconstructing volScalarFields

        nu1
        p_rgh
        strainRate
        p
        alpha.bioink

    Reconstructing volVectorFields

        wallShearStress
        U

    Reconstructing volSymmTensorFields

        shearStress

    Reconstructing volTensorFields

        grad(U)

    Reconstructing surfaceScalarFields

        phi
        alphaPhi0.bioink

Reconstructing point fields

No point fields

No lagrangian fields


End

