/*---------------------------------------------------------------------------*\
  =========                 |
  \\      /  F ield         | OpenFOAM: The Open Source CFD Toolbox
   \\    /   O peration     | Website:  https://openfoam.org
    \\  /    A nd           | Version:  9
     \\/     M anipulation  |
\*---------------------------------------------------------------------------*/
Build  : 9-b456138dc4bc
Exec   : simpleFoam -parallel
Date   : Apr 12 2022
Time   : 12:26:38
Host   : "KORIN-LAB"
PID    : 5508
I/O    : uncollated
Case   : /home/colin/OpenFOAM/colin-9/run/wsl/wedge_needle/35_temp/tapered_true_layer
nProcs : 6
Slaves : 
5
(
"KORIN-LAB.5509"
"KORIN-LAB.5510"
"KORIN-LAB.5511"
"KORIN-LAB.5512"
"KORIN-LAB.5513"
)

Pstream initialised with:
    floatTransfer      : 0
    nProcsSimpleSum    : 0
    commsType          : nonBlocking
    polling iterations : 0
sigFpe : Enabling floating point exception trapping (FOAM_SIGFPE).
fileModificationChecking : Monitoring run-time modified files using timeStampMaster (fileModificationSkew 10)
allowSystemOperations : Allowing user-supplied system call operations

// * * * * * * * * * * * * * * * * * * * * * * * * * * * * * * * * * * * * * //
Create time

Create mesh for time = 0


SIMPLE: Convergence criteria found
        p: tolerance 0.001
        U: tolerance 0.0001
        "(k|epsilon|omega|f|v2)": tolerance 0.0001

Reading field p

Reading field U

Reading/calculating face flux field phi

Selecting incompressible transport model powerLaw
Selecting turbulence model type laminar
Selecting laminar stress model Stokes
No MRF models present

No fvModels present
No fvConstraints present

Starting time loop

wallShearStress wallShearStress:
    processing all wall patches

Time = 1

smoothSolver:  Solving for Ux, Initial residual = 0.999974196111, Final residual = 0.0919419452454, No Iterations 2
smoothSolver:  Solving for Uy, Initial residual = 0.999999999999, Final residual = 0.0705822008603, No Iterations 2
smoothSolver:  Solving for Uz, Initial residual = 1, Final residual = 0.0920630302967, No Iterations 2
GAMG:  Solving for p, Initial residual = 0.999999999986, Final residual = 0.0448272270727, No Iterations 28
time step continuity errors : sum local = 0.0146486186985, global = -7.71368259325e-06, cumulative = -7.71368259325e-06
ExecutionTime = 0.15 s  ClockTime = 0 s

Time = 2

smoothSolver:  Solving for Ux, Initial residual = 0.858144349166, Final residual = 0.0747010788724, No Iterations 4
smoothSolver:  Solving for Uy, Initial residual = 0.903268308952, Final residual = 0.0806422197523, No Iterations 4
smoothSolver:  Solving for Uz, Initial residual = 0.851799820515, Final residual = 0.0753619457127, No Iterations 4
GAMG:  Solving for p, Initial residual = 0.00752140479595, Final residual = 0.000274220628235, No Iterations 16
time step continuity errors : sum local = 4.82273447392, global = 0.0147726321415, cumulative = 0.0147649184589
ExecutionTime = 0.24 s  ClockTime = 0 s

Time = 3

smoothSolver:  Solving for Ux, Initial residual = 0.193251609726, Final residual = 0.010830733896, No Iterations 4
smoothSolver:  Solving for Uy, Initial residual = 0.511787022584, Final residual = 0.0434266191433, No Iterations 4
smoothSolver:  Solving for Uz, Initial residual = 0.0945977280618, Final residual = 0.00836796142197, No Iterations 4
GAMG:  Solving for p, Initial residual = 0.0285544968039, Final residual = 0.00118600809949, No Iterations 17
time step continuity errors : sum local = 6.33550892559, global = 0.0092830739653, cumulative = 0.0240479924242
ExecutionTime = 0.3 s  ClockTime = 0 s

Time = 4

smoothSolver:  Solving for Ux, Initial residual = 0.00956365664181, Final residual = 0.000522699546325, No Iterations 4
smoothSolver:  Solving for Uy, Initial residual = 0.137399148692, Final residual = 0.0120858788033, No Iterations 4
smoothSolver:  Solving for Uz, Initial residual = 0.0358817754128, Final residual = 0.00307930205044, No Iterations 4
GAMG:  Solving for p, Initial residual = 0.204973011673, Final residual = 0.00667150370451, No Iterations 13
time step continuity errors : sum local = 10.0170833378, global = 0.0156647536764, cumulative = 0.0397127461006
ExecutionTime = 0.37 s  ClockTime = 0 s

Time = 5

smoothSolver:  Solving for Ux, Initial residual = 0.00289409644833, Final residual = 0.000176273825742, No Iterations 4
smoothSolver:  Solving for Uy, Initial residual = 0.040039559482, Final residual = 0.00348824687356, No Iterations 4
smoothSolver:  Solving for Uz, Initial residual = 0.0243718094886, Final residual = 0.00197834852102, No Iterations 4
GAMG:  Solving for p, Initial residual = 0.175361529361, Final residual = 0.00831466213698, No Iterations 10
time step continuity errors : sum local = 11.6417264676, global = 0.00681367033311, cumulative = 0.0465264164338
ExecutionTime = 0.45 s  ClockTime = 0 s

Time = 6

smoothSolver:  Solving for Ux, Initial residual = 0.0013126783442, Final residual = 0.000122839027444, No Iterations 3
smoothSolver:  Solving for Uy, Initial residual = 0.0420833210399, Final residual = 0.00348499926116, No Iterations 4
smoothSolver:  Solving for Uz, Initial residual = 0.0479387822921, Final residual = 0.00402591783495, No Iterations 4
GAMG:  Solving for p, Initial residual = 0.0754823554619, Final residual = 0.00274518959668, No Iterations 12
time step continuity errors : sum local = 4.11886829765, global = -0.0126861938179, cumulative = 0.0338402226158
ExecutionTime = 0.52 s  ClockTime = 0 s

Time = 7

smoothSolver:  Solving for Ux, Initial residual = 0.000815396565252, Final residual = 5.79848866586e-05, No Iterations 3
smoothSolver:  Solving for Uy, Initial residual = 0.182531022045, Final residual = 0.0161267061908, No Iterations 4
smoothSolver:  Solving for Uz, Initial residual = 0.2200250108, Final residual = 0.0192504625893, No Iterations 4
GAMG:  Solving for p, Initial residual = 0.106118916979, Final residual = 0.00477514510588, No Iterations 12
time step continuity errors : sum local = 4.54117482181, global = -0.0129237220993, cumulative = 0.0209165005165
ExecutionTime = 0.6 s  ClockTime = 0 s

Time = 8

smoothSolver:  Solving for Ux, Initial residual = 0.000699794016527, Final residual = 4.98513483502e-05, No Iterations 3
smoothSolver:  Solving for Uy, Initial residual = 0.133369603011, Final residual = 0.0118778216302, No Iterations 4
smoothSolver:  Solving for Uz, Initial residual = 0.162963284973, Final residual = 0.0143559216768, No Iterations 4
GAMG:  Solving for p, Initial residual = 0.243184318507, Final residual = 0.0116011739281, No Iterations 12
time step continuity errors : sum local = 4.68397317153, global = -0.00638539449419, cumulative = 0.0145311060223
ExecutionTime = 0.69 s  ClockTime = 0 s

Time = 9

smoothSolver:  Solving for Ux, Initial residual = 0.000629079481308, Final residual = 5.19036014252e-05, No Iterations 3
smoothSolver:  Solving for Uy, Initial residual = 0.05501865629, Final residual = 0.00489631102281, No Iterations 4
smoothSolver:  Solving for Uz, Initial residual = 0.181386910874, Final residual = 0.0159772862097, No Iterations 4
GAMG:  Solving for p, Initial residual = 0.242247991197, Final residual = 0.0120917939789, No Iterations 12
time step continuity errors : sum local = 3.81451752966, global = 0.000311092351553, cumulative = 0.0148421983739
ExecutionTime = 0.77 s  ClockTime = 0 s

Time = 10

smoothSolver:  Solving for Ux, Initial residual = 0.000547763911616, Final residual = 4.93714775219e-05, No Iterations 3
smoothSolver:  Solving for Uy, Initial residual = 0.037246433797, Final residual = 0.00318263004469, No Iterations 4
smoothSolver:  Solving for Uz, Initial residual = 0.0880105105079, Final residual = 0.00759581520403, No Iterations 4
GAMG:  Solving for p, Initial residual = 0.155855157643, Final residual = 0.00701406069548, No Iterations 11
time step continuity errors : sum local = 2.35174909252, global = 0.017032289531, cumulative = 0.0318744879049
ExecutionTime = 0.86 s  ClockTime = 0 s

Time = 11

smoothSolver:  Solving for Ux, Initial residual = 0.000459844659148, Final residual = 4.48833660575e-05, No Iterations 3
smoothSolver:  Solving for Uy, Initial residual = 0.0524212665905, Final residual = 0.00438774518233, No Iterations 4
smoothSolver:  Solving for Uz, Initial residual = 0.0246321864507, Final residual = 0.00202926695533, No Iterations 4
GAMG:  Solving for p, Initial residual = 0.147085967186, Final residual = 0.00449415000511, No Iterations 9
time step continuity errors : sum local = 1.20535167305, global = 0.00346377443595, cumulative = 0.0353382623408
ExecutionTime = 0.92 s  ClockTime = 0 s

Time = 12

smoothSolver:  Solving for Ux, Initial residual = 0.000412817119217, Final residual = 2.20942037279e-05, No Iterations 4
smoothSolver:  Solving for Uy, Initial residual = 0.218508585757, Final residual = 0.019183197082, No Iterations 4
smoothSolver:  Solving for Uz, Initial residual = 0.025765091079, Final residual = 0.00226189166473, No Iterations 4
GAMG:  Solving for p, Initial residual = 0.178050030016, Final residual = 0.00772888884516, No Iterations 9
time step continuity errors : sum local = 1.33088056012, global = 0.00190988718545, cumulative = 0.0372481495263
ExecutionTime = 1 s  ClockTime = 1 s

Time = 13

smoothSolver:  Solving for Ux, Initial residual = 0.000407934916204, Final residual = 2.28940976462e-05, No Iterations 4
smoothSolver:  Solving for Uy, Initial residual = 0.174542808584, Final residual = 0.0155048321271, No Iterations 4
smoothSolver:  Solving for Uz, Initial residual = 0.0231158205239, Final residual = 0.00205025760588, No Iterations 4
GAMG:  Solving for p, Initial residual = 0.230420299428, Final residual = 0.0110174230283, No Iterations 9
time step continuity errors : sum local = 1.17715049616, global = 0.000446026551281, cumulative = 0.0376941760775
ExecutionTime = 1.09 s  ClockTime = 1 s

Time = 14

smoothSolver:  Solving for Ux, Initial residual = 0.000433828902606, Final residual = 2.3668548619e-05, No Iterations 4
smoothSolver:  Solving for Uy, Initial residual = 0.115744576738, Final residual = 0.0102535512387, No Iterations 4
smoothSolver:  Solving for Uz, Initial residual = 0.0186241549218, Final residual = 0.00164207878169, No Iterations 4
GAMG:  Solving for p, Initial residual = 0.242517437757, Final residual = 0.0113713024933, No Iterations 9
time step continuity errors : sum local = 0.925327670302, global = 9.50117459841e-05, cumulative = 0.0377891878235
ExecutionTime = 1.16 s  ClockTime = 1 s

Time = 15

smoothSolver:  Solving for Ux, Initial residual = 0.000428415735872, Final residual = 2.30946359439e-05, No Iterations 4
smoothSolver:  Solving for Uy, Initial residual = 0.091920046135, Final residual = 0.00802972461424, No Iterations 4
smoothSolver:  Solving for Uz, Initial residual = 0.0118418607062, Final residual = 0.00101879596655, No Iterations 4
GAMG:  Solving for p, Initial residual = 0.206000342341, Final residual = 0.00765661244639, No Iterations 10
time step continuity errors : sum local = 0.552451778638, global = 0.00205756092105, cumulative = 0.0398467487446
ExecutionTime = 1.24 s  ClockTime = 1 s

Time = 16

smoothSolver:  Solving for Ux, Initial residual = 0.00039123226206, Final residual = 2.11824784277e-05, No Iterations 4
smoothSolver:  Solving for Uy, Initial residual = 0.0844354287091, Final residual = 0.00689224154535, No Iterations 4
smoothSolver:  Solving for Uz, Initial residual = 0.00711680556704, Final residual = 0.000573535335285, No Iterations 4
GAMG:  Solving for p, Initial residual = 0.174874995167, Final residual = 0.0085867413114, No Iterations 9
time step continuity errors : sum local = 0.525563124121, global = -0.00162367263709, cumulative = 0.0382230761075
ExecutionTime = 1.33 s  ClockTime = 1 s

Time = 17

smoothSolver:  Solving for Ux, Initial residual = 0.000376755494731, Final residual = 1.99098207485e-05, No Iterations 4
smoothSolver:  Solving for Uy, Initial residual = 0.0769052344728, Final residual = 0.00657976208833, No Iterations 4
smoothSolver:  Solving for Uz, Initial residual = 0.00908009097332, Final residual = 0.000779039345924, No Iterations 4
GAMG:  Solving for p, Initial residual = 0.145829874232, Final residual = 0.00615578178989, No Iterations 8
time step continuity errors : sum local = 0.317072628726, global = -0.000426839820739, cumulative = 0.0377962362867
ExecutionTime = 1.4 s  ClockTime = 1 s

Time = 18

smoothSolver:  Solving for Ux, Initial residual = 0.000355210056476, Final residual = 1.94375830274e-05, No Iterations 4
smoothSolver:  Solving for Uy, Initial residual = 0.0665398140637, Final residual = 0.00579861716751, No Iterations 4
smoothSolver:  Solving for Uz, Initial residual = 0.0100229992179, Final residual = 0.000878361045597, No Iterations 4
GAMG:  Solving for p, Initial residual = 0.149147793205, Final residual = 0.00716746719399, No Iterations 9
time step continuity errors : sum local = 0.28741387096, global = -0.000204723249139, cumulative = 0.0375915130376
ExecutionTime = 1.48 s  ClockTime = 1 s

Time = 19

smoothSolver:  Solving for Ux, Initial residual = 0.000354427681187, Final residual = 1.94988736297e-05, No Iterations 4
smoothSolver:  Solving for Uy, Initial residual = 0.0509173103963, Final residual = 0.00439417223023, No Iterations 4
smoothSolver:  Solving for Uz, Initial residual = 0.00823911697958, Final residual = 0.000720785979323, No Iterations 4
GAMG:  Solving for p, Initial residual = 0.170111490593, Final residual = 0.00838978718974, No Iterations 9
time step continuity errors : sum local = 0.24839259951, global = -0.000150474385739, cumulative = 0.0374410386519
ExecutionTime = 1.54 s  ClockTime = 1 s

Time = 20

smoothSolver:  Solving for Ux, Initial residual = 0.000349171183263, Final residual = 1.96989641065e-05, No Iterations 4
smoothSolver:  Solving for Uy, Initial residual = 0.0349252631819, Final residual = 0.00294340630055, No Iterations 4
smoothSolver:  Solving for Uz, Initial residual = 0.00533288024651, Final residual = 0.000454593163992, No Iterations 4
GAMG:  Solving for p, Initial residual = 0.158775778874, Final residual = 0.00713542624666, No Iterations 8
time step continuity errors : sum local = 0.189202097675, global = -0.000284532849302, cumulative = 0.0371565058026
ExecutionTime = 1.62 s  ClockTime = 1 s

Time = 21

smoothSolver:  Solving for Ux, Initial residual = 0.000342882917906, Final residual = 1.98968832332e-05, No Iterations 4
smoothSolver:  Solving for Uy, Initial residual = 0.0231483463865, Final residual = 0.00186241816803, No Iterations 4
smoothSolver:  Solving for Uz, Initial residual = 0.00337816644879, Final residual = 0.000274507279504, No Iterations 4
GAMG:  Solving for p, Initial residual = 0.132883726392, Final residual = 0.00460243552806, No Iterations 10
time step continuity errors : sum local = 0.115054888084, global = -0.000579721594135, cumulative = 0.0365767842084
ExecutionTime = 1.71 s  ClockTime = 1 s

Time = 22

smoothSolver:  Solving for Ux, Initial residual = 0.000338212844609, Final residual = 2.02774776237e-05, No Iterations 4
smoothSolver:  Solving for Uy, Initial residual = 0.0245319249274, Final residual = 0.00203799366024, No Iterations 4
smoothSolver:  Solving for Uz, Initial residual = 0.00324159236866, Final residual = 0.000267100156175, No Iterations 4
GAMG:  Solving for p, Initial residual = 0.114840377338, Final residual = 0.00467965524716, No Iterations 9
time step continuity errors : sum local = 0.105262650674, global = 0.000150467986464, cumulative = 0.0367272521949
ExecutionTime = 1.77 s  ClockTime = 1 s

Time = 23

smoothSolver:  Solving for Ux, Initial residual = 0.000334492378273, Final residual = 2.09198174662e-05, No Iterations 4
smoothSolver:  Solving for Uy, Initial residual = 0.0291756430604, Final residual = 0.00251917412486, No Iterations 4
smoothSolver:  Solving for Uz, Initial residual = 0.00368326783755, Final residual = 0.000313355865721, No Iterations 4
GAMG:  Solving for p, Initial residual = 0.102492014058, Final residual = 0.0049402325593, No Iterations 7
time step continuity errors : sum local = 0.0971807404944, global = 5.37347858259e-05, cumulative = 0.0367809869807
ExecutionTime = 1.85 s  ClockTime = 1 s

Time = 24

smoothSolver:  Solving for Ux, Initial residual = 0.000328839916889, Final residual = 2.12800233838e-05, No Iterations 4
smoothSolver:  Solving for Uy, Initial residual = 0.0252918183856, Final residual = 0.00218358309765, No Iterations 4
smoothSolver:  Solving for Uz, Initial residual = 0.00349348794164, Final residual = 0.000297786950215, No Iterations 4
GAMG:  Solving for p, Initial residual = 0.10398457256, Final residual = 0.00498232119759, No Iterations 8
time step continuity errors : sum local = 0.0819484185443, global = 4.94053540669e-05, cumulative = 0.0368303923348
ExecutionTime = 1.92 s  ClockTime = 1 s

Time = 25

smoothSolver:  Solving for Ux, Initial residual = 0.000323815905472, Final residual = 2.14307952621e-05, No Iterations 4
smoothSolver:  Solving for Uy, Initial residual = 0.0182033092244, Final residual = 0.00153547069338, No Iterations 4
smoothSolver:  Solving for Uz, Initial residual = 0.00289917920462, Final residual = 0.000241601655668, No Iterations 4
GAMG:  Solving for p, Initial residual = 0.112183344566, Final residual = 0.0054102180813, No Iterations 8
time step continuity errors : sum local = 0.0727326726209, global = 4.63844641781e-05, cumulative = 0.036876776799
ExecutionTime = 2 s  ClockTime = 2 s

Time = 26

smoothSolver:  Solving for Ux, Initial residual = 0.000320499562084, Final residual = 2.1456451659e-05, No Iterations 4
smoothSolver:  Solving for Uy, Initial residual = 0.0123639443841, Final residual = 0.000993106595788, No Iterations 4
smoothSolver:  Solving for Uz, Initial residual = 0.00240618173123, Final residual = 0.00019706834082, No Iterations 4
GAMG:  Solving for p, Initial residual = 0.111916378317, Final residual = 0.00554648980491, No Iterations 8
time step continuity errors : sum local = 0.06269998546, global = 0.000308090059517, cumulative = 0.0371848668585
ExecutionTime = 2.08 s  ClockTime = 2 s

Time = 27

smoothSolver:  Solving for Ux, Initial residual = 0.000317338157614, Final residual = 2.14648219918e-05, No Iterations 4
smoothSolver:  Solving for Uy, Initial residual = 0.0109610531766, Final residual = 0.000862671543193, No Iterations 4
smoothSolver:  Solving for Uz, Initial residual = 0.00228852146725, Final residual = 0.000185512575169, No Iterations 4
GAMG:  Solving for p, Initial residual = 0.103455002019, Final residual = 0.00444168644414, No Iterations 8
time step continuity errors : sum local = 0.0444586311285, global = -0.000138593728342, cumulative = 0.0370462731301
ExecutionTime = 2.15 s  ClockTime = 2 s

Time = 28

smoothSolver:  Solving for Ux, Initial residual = 0.000312882980163, Final residual = 2.13993439825e-05, No Iterations 4
smoothSolver:  Solving for Uy, Initial residual = 0.0114593170327, Final residual = 0.000935665347157, No Iterations 4
smoothSolver:  Solving for Uz, Initial residual = 0.00238591440119, Final residual = 0.000195842294052, No Iterations 4
GAMG:  Solving for p, Initial residual = 0.0946150161678, Final residual = 0.00460761639478, No Iterations 7
time step continuity errors : sum local = 0.0414948703009, global = -3.19603458222e-05, cumulative = 0.0370143127843
ExecutionTime = 2.23 s  ClockTime = 2 s

Time = 29

smoothSolver:  Solving for Ux, Initial residual = 0.00030803357048, Final residual = 2.13523154362e-05, No Iterations 4
smoothSolver:  Solving for Uy, Initial residual = 0.011181461167, Final residual = 0.000921869855153, No Iterations 4
smoothSolver:  Solving for Uz, Initial residual = 0.00237578038529, Final residual = 0.00019692294956, No Iterations 4
GAMG:  Solving for p, Initial residual = 0.0860871882379, Final residual = 0.00405478650515, No Iterations 6
time step continuity errors : sum local = 0.034127125332, global = -3.24123106504e-05, cumulative = 0.0369819004737
ExecutionTime = 2.32 s  ClockTime = 2 s

Time = 30

smoothSolver:  Solving for Ux, Initial residual = 0.000304144998684, Final residual = 2.14037603605e-05, No Iterations 4
smoothSolver:  Solving for Uy, Initial residual = 0.00957692732308, Final residual = 0.000787156831632, No Iterations 4
smoothSolver:  Solving for Uz, Initial residual = 0.00226786188076, Final residual = 0.000188423505128, No Iterations 4
GAMG:  Solving for p, Initial residual = 0.0802531815988, Final residual = 0.0036702116085, No Iterations 8
time step continuity errors : sum local = 0.0292596171098, global = -5.1840989009e-06, cumulative = 0.0369767163748
ExecutionTime = 2.39 s  ClockTime = 2 s

Time = 31

smoothSolver:  Solving for Ux, Initial residual = 0.000301244076948, Final residual = 2.14986229794e-05, No Iterations 4
smoothSolver:  Solving for Uy, Initial residual = 0.00819702812069, Final residual = 0.000669707473696, No Iterations 4
smoothSolver:  Solving for Uz, Initial residual = 0.00210553024829, Final residual = 0.00017447636597, No Iterations 4
GAMG:  Solving for p, Initial residual = 0.0745599963111, Final residual = 0.00327917805523, No Iterations 8
time step continuity errors : sum local = 0.0249241082061, global = -2.88435149872e-05, cumulative = 0.0369478728598
ExecutionTime = 2.46 s  ClockTime = 2 s

Time = 32

smoothSolver:  Solving for Ux, Initial residual = 0.000299149689497, Final residual = 2.16157213007e-05, No Iterations 4
smoothSolver:  Solving for Uy, Initial residual = 0.0072684346225, Final residual = 0.000590657292306, No Iterations 4
smoothSolver:  Solving for Uz, Initial residual = 0.00200426457567, Final residual = 0.000165854908996, No Iterations 4
GAMG:  Solving for p, Initial residual = 0.0681583017534, Final residual = 0.00287225285456, No Iterations 8
time step continuity errors : sum local = 0.0204504409779, global = -0.000100285904244, cumulative = 0.0368475869555
ExecutionTime = 2.53 s  ClockTime = 2 s

Time = 33

smoothSolver:  Solving for Ux, Initial residual = 0.000297505270228, Final residual = 2.17170229549e-05, No Iterations 4
smoothSolver:  Solving for Uy, Initial residual = 0.00708201570966, Final residual = 0.000582397394575, No Iterations 4
smoothSolver:  Solving for Uz, Initial residual = 0.00196612252095, Final residual = 0.00016317488959, No Iterations 4
GAMG:  Solving for p, Initial residual = 0.0626773708192, Final residual = 0.00298538274943, No Iterations 6
time step continuity errors : sum local = 0.0197164027298, global = 4.56772607283e-05, cumulative = 0.0368932642163
ExecutionTime = 2.6 s  ClockTime = 2 s

Time = 34

smoothSolver:  Solving for Ux, Initial residual = 0.000296063128513, Final residual = 2.17908222057e-05, No Iterations 4
smoothSolver:  Solving for Uy, Initial residual = 0.00703927105477, Final residual = 0.000587957639382, No Iterations 4
smoothSolver:  Solving for Uz, Initial residual = 0.00194935350963, Final residual = 0.000162110588687, No Iterations 4
GAMG:  Solving for p, Initial residual = 0.0582178060633, Final residual = 0.00243223537052, No Iterations 5
time step continuity errors : sum local = 0.0149411889265, global = 2.50949871079e-05, cumulative = 0.0369183592034
ExecutionTime = 2.69 s  ClockTime = 2 s

Time = 35

smoothSolver:  Solving for Ux, Initial residual = 0.000294508438152, Final residual = 2.18427722716e-05, No Iterations 4
smoothSolver:  Solving for Uy, Initial residual = 0.00674840203192, Final residual = 0.000564245769726, No Iterations 4
smoothSolver:  Solving for Uz, Initial residual = 0.00192559383232, Final residual = 0.000160488180505, No Iterations 4
GAMG:  Solving for p, Initial residual = 0.0561223196127, Final residual = 0.00232816100612, No Iterations 5
time step continuity errors : sum local = 0.0131741819083, global = 0.000112773885247, cumulative = 0.0370311330886
ExecutionTime = 2.76 s  ClockTime = 2 s

Time = 36

smoothSolver:  Solving for Ux, Initial residual = 0.00029274981734, Final residual = 2.18709988551e-05, No Iterations 4
smoothSolver:  Solving for Uy, Initial residual = 0.00639501400904, Final residual = 0.000533553156847, No Iterations 4
smoothSolver:  Solving for Uz, Initial residual = 0.00189455480894, Final residual = 0.000158217664777, No Iterations 4
GAMG:  Solving for p, Initial residual = 0.0543905767844, Final residual = 0.00243077618169, No Iterations 6
time step continuity errors : sum local = 0.0126601378781, global = -3.38489476556e-06, cumulative = 0.0370277481939
ExecutionTime = 2.83 s  ClockTime = 2 s

Time = 37

smoothSolver:  Solving for Ux, Initial residual = 0.000290776423902, Final residual = 2.18702377452e-05, No Iterations 4
smoothSolver:  Solving for Uy, Initial residual = 0.00614825752154, Final residual = 0.000512638664657, No Iterations 4
smoothSolver:  Solving for Uz, Initial residual = 0.00186666690421, Final residual = 0.000156050925096, No Iterations 4
GAMG:  Solving for p, Initial residual = 0.0523737654398, Final residual = 0.00221605318057, No Iterations 6
time step continuity errors : sum local = 0.010661682564, global = 2.93612529251e-05, cumulative = 0.0370571094468
ExecutionTime = 2.9 s  ClockTime = 2 s

Time = 38

smoothSolver:  Solving for Ux, Initial residual = 0.000288858719981, Final residual = 2.18560767504e-05, No Iterations 4
smoothSolver:  Solving for Uy, Initial residual = 0.00601374288346, Final residual = 0.000502876404214, No Iterations 4
smoothSolver:  Solving for Uz, Initial residual = 0.00184557638104, Final residual = 0.000154556358634, No Iterations 4
GAMG:  Solving for p, Initial residual = 0.0490688757087, Final residual = 0.00240481301396, No Iterations 5
time step continuity errors : sum local = 0.0108421080988, global = 4.46919731157e-05, cumulative = 0.0371018014199
ExecutionTime = 2.99 s  ClockTime = 2 s

Time = 39

smoothSolver:  Solving for Ux, Initial residual = 0.000286976317562, Final residual = 2.18379554121e-05, No Iterations 4
smoothSolver:  Solving for Uy, Initial residual = 0.00594724381743, Final residual = 0.000500705300695, No Iterations 4
smoothSolver:  Solving for Uz, Initial residual = 0.00182493421884, Final residual = 0.000153074448601, No Iterations 4
GAMG:  Solving for p, Initial residual = 0.0454357503734, Final residual = 0.00178384167694, No Iterations 4
time step continuity errors : sum local = 0.00762590302817, global = -0.00011234518263, cumulative = 0.0369894562373
ExecutionTime = 3.06 s  ClockTime = 3 s

Time = 40

smoothSolver:  Solving for Ux, Initial residual = 0.000285474940951, Final residual = 2.18433883729e-05, No Iterations 4
smoothSolver:  Solving for Uy, Initial residual = 0.00582507287936, Final residual = 0.000492233914642, No Iterations 4
smoothSolver:  Solving for Uz, Initial residual = 0.00180165079024, Final residual = 0.000151373229084, No Iterations 4
GAMG:  Solving for p, Initial residual = 0.0424225519646, Final residual = 0.00120020367752, No Iterations 4
time step continuity errors : sum local = 0.00488230252096, global = -9.59557241226e-05, cumulative = 0.0368935005131
ExecutionTime = 3.13 s  ClockTime = 3 s

Time = 41

smoothSolver:  Solving for Ux, Initial residual = 0.000284614553301, Final residual = 2.18813216269e-05, No Iterations 4
smoothSolver:  Solving for Uy, Initial residual = 0.00569123161623, Final residual = 0.000481967046734, No Iterations 4
smoothSolver:  Solving for Uz, Initial residual = 0.00177701136622, Final residual = 0.000149487959522, No Iterations 4
GAMG:  Solving for p, Initial residual = 0.0399557619022, Final residual = 0.00135878070354, No Iterations 5
time step continuity errors : sum local = 0.00528059933787, global = 8.20051443815e-05, cumulative = 0.0369755056575
ExecutionTime = 3.19 s  ClockTime = 3 s

Time = 42

smoothSolver:  Solving for Ux, Initial residual = 0.000283966006859, Final residual = 2.191556842e-05, No Iterations 4
smoothSolver:  Solving for Uy, Initial residual = 0.00558342289469, Final residual = 0.000474385568873, No Iterations 4
smoothSolver:  Solving for Uz, Initial residual = 0.00175012826261, Final residual = 0.000147360912366, No Iterations 4
GAMG:  Solving for p, Initial residual = 0.0373688738803, Final residual = 0.00137792601807, No Iterations 5
time step continuity errors : sum local = 0.00515821198032, global = 4.63000841093e-05, cumulative = 0.0370218057416
ExecutionTime = 3.26 s  ClockTime = 3 s

Time = 43

smoothSolver:  Solving for Ux, Initial residual = 0.000283498335246, Final residual = 2.19545633798e-05, No Iterations 4
smoothSolver:  Solving for Uy, Initial residual = 0.00545331670931, Final residual = 0.000464250215088, No Iterations 4
smoothSolver:  Solving for Uz, Initial residual = 0.00172480794322, Final residual = 0.000145326777148, No Iterations 4
GAMG:  Solving for p, Initial residual = 0.0347602468797, Final residual = 0.00173770996865, No Iterations 4
time step continuity errors : sum local = 0.0062517268205, global = -0.000122800416301, cumulative = 0.0368990053253
ExecutionTime = 3.34 s  ClockTime = 3 s

Time = 44

smoothSolver:  Solving for Ux, Initial residual = 0.000283026406745, Final residual = 2.19942090351e-05, No Iterations 4
smoothSolver:  Solving for Uy, Initial residual = 0.0053285386737, Final residual = 0.000454570410798, No Iterations 4
smoothSolver:  Solving for Uz, Initial residual = 0.00170175172502, Final residual = 0.000143506074778, No Iterations 4
GAMG:  Solving for p, Initial residual = 0.0321853703844, Final residual = 0.0012879677546, No Iterations 4
time step continuity errors : sum local = 0.00445876912754, global = -7.54554236405e-05, cumulative = 0.0368235499017
ExecutionTime = 3.41 s  ClockTime = 3 s

Time = 45

smoothSolver:  Solving for Ux, Initial residual = 0.000282456269484, Final residual = 2.20224670529e-05, No Iterations 4
smoothSolver:  Solving for Uy, Initial residual = 0.00523633619902, Final residual = 0.000447808872813, No Iterations 4
smoothSolver:  Solving for Uz, Initial residual = 0.00167898963462, Final residual = 0.000141715115546, No Iterations 4
GAMG:  Solving for p, Initial residual = 0.0300046346577, Final residual = 0.00146054742221, No Iterations 3
time step continuity errors : sum local = 0.00486075033034, global = 7.97739896457e-05, cumulative = 0.0369033238913
ExecutionTime = 3.49 s  ClockTime = 3 s

Time = 46

smoothSolver:  Solving for Ux, Initial residual = 0.000281903970476, Final residual = 2.20494523668e-05, No Iterations 4
smoothSolver:  Solving for Uy, Initial residual = 0.00514836845037, Final residual = 0.000441200203286, No Iterations 4
smoothSolver:  Solving for Uz, Initial residual = 0.00165832769478, Final residual = 0.000140102341227, No Iterations 4
GAMG:  Solving for p, Initial residual = 0.0280127113962, Final residual = 0.0012704178514, No Iterations 3
time step continuity errors : sum local = 0.00407355276956, global = 7.42176761939e-05, cumulative = 0.0369775415675
ExecutionTime = 3.55 s  ClockTime = 3 s

Time = 47

smoothSolver:  Solving for Ux, Initial residual = 0.000281582964283, Final residual = 2.20784939417e-05, No Iterations 4
smoothSolver:  Solving for Uy, Initial residual = 0.00506816321353, Final residual = 0.000434822549766, No Iterations 4
smoothSolver:  Solving for Uz, Initial residual = 0.00163783606734, Final residual = 0.000138484673684, No Iterations 4
GAMG:  Solving for p, Initial residual = 0.0264737796125, Final residual = 0.000895093701107, No Iterations 4
time step continuity errors : sum local = 0.00276920214084, global = -1.36365723246e-05, cumulative = 0.0369639049952
ExecutionTime = 3.63 s  ClockTime = 3 s

Time = 48

smoothSolver:  Solving for Ux, Initial residual = 0.000281105857293, Final residual = 2.21050424912e-05, No Iterations 4
smoothSolver:  Solving for Uy, Initial residual = 0.0049820383905, Final residual = 0.000428372412659, No Iterations 4
smoothSolver:  Solving for Uz, Initial residual = 0.00161754352874, Final residual = 0.000136916797403, No Iterations 4
GAMG:  Solving for p, Initial residual = 0.0248665934142, Final residual = 0.00104611880777, No Iterations 4
time step continuity errors : sum local = 0.00312047913416, global = -2.20628637835e-05, cumulative = 0.0369418421314
ExecutionTime = 3.69 s  ClockTime = 3 s

Time = 49

smoothSolver:  Solving for Ux, Initial residual = 0.000280685284119, Final residual = 2.21355366666e-05, No Iterations 4
smoothSolver:  Solving for Uy, Initial residual = 0.00489948174484, Final residual = 0.000422109808505, No Iterations 4
smoothSolver:  Solving for Uz, Initial residual = 0.00159715967394, Final residual = 0.000135324158924, No Iterations 4
GAMG:  Solving for p, Initial residual = 0.0232871030196, Final residual = 0.000791241641386, No Iterations 4
time step continuity errors : sum local = 0.0022833672829, global = -6.67003881357e-06, cumulative = 0.0369351720926
ExecutionTime = 3.75 s  ClockTime = 3 s

Time = 50

smoothSolver:  Solving for Ux, Initial residual = 0.000280324784032, Final residual = 2.21698009254e-05, No Iterations 4
smoothSolver:  Solving for Uy, Initial residual = 0.00482085085078, Final residual = 0.000416102667182, No Iterations 4
smoothSolver:  Solving for Uz, Initial residual = 0.00157684172036, Final residual = 0.000133714912551, No Iterations 4
GAMG:  Solving for p, Initial residual = 0.0217157786786, Final residual = 0.00043014285292, No Iterations 4
time step continuity errors : sum local = 0.00120510727264, global = 4.8608212533e-06, cumulative = 0.0369400329139
ExecutionTime = 3.82 s  ClockTime = 3 s

Time = 51

smoothSolver:  Solving for Ux, Initial residual = 0.000280145064659, Final residual = 2.2208515385e-05, No Iterations 4
smoothSolver:  Solving for Uy, Initial residual = 0.00474827345921, Final residual = 0.000410289438213, No Iterations 4
smoothSolver:  Solving for Uz, Initial residual = 0.00155682835347, Final residual = 0.000132092259124, No Iterations 4
GAMG:  Solving for p, Initial residual = 0.0203956535933, Final residual = 0.000831088849663, No Iterations 3
time step continuity errors : sum local = 0.00226636333156, global = 3.48289878205e-06, cumulative = 0.0369435158126
ExecutionTime = 3.9 s  ClockTime = 3 s

Time = 52

smoothSolver:  Solving for Ux, Initial residual = 0.000279805905352, Final residual = 2.22326811283e-05, No Iterations 4
smoothSolver:  Solving for Uy, Initial residual = 0.00467297920168, Final residual = 0.000404516853635, No Iterations 4
smoothSolver:  Solving for Uz, Initial residual = 0.00153539489848, Final residual = 0.000130344106514, No Iterations 4
GAMG:  Solving for p, Initial residual = 0.0191057506134, Final residual = 0.000391318080103, No Iterations 4
time step continuity errors : sum local = 0.00104121377471, global = 1.08522836521e-05, cumulative = 0.0369543680963
ExecutionTime = 3.97 s  ClockTime = 3 s

Time = 53

smoothSolver:  Solving for Ux, Initial residual = 0.000279646957367, Final residual = 2.22732382205e-05, No Iterations 4
smoothSolver:  Solving for Uy, Initial residual = 0.00459813989532, Final residual = 0.00039867388185, No Iterations 4
smoothSolver:  Solving for Uz, Initial residual = 0.00151496274257, Final residual = 0.000128646716999, No Iterations 4
GAMG:  Solving for p, Initial residual = 0.0178903401691, Final residual = 0.000444798242465, No Iterations 4
time step continuity errors : sum local = 0.00115596985383, global = 8.27979853275e-06, cumulative = 0.0369626478948
ExecutionTime = 4.04 s  ClockTime = 4 s

Time = 54

smoothSolver:  Solving for Ux, Initial residual = 0.000279601837272, Final residual = 2.23223608971e-05, No Iterations 4
smoothSolver:  Solving for Uy, Initial residual = 0.00452672870972, Final residual = 0.000392980753333, No Iterations 4
smoothSolver:  Solving for Uz, Initial residual = 0.00149461872275, Final residual = 0.000126951003717, No Iterations 4
GAMG:  Solving for p, Initial residual = 0.0167501673835, Final residual = 0.000427692878847, No Iterations 4
time step continuity errors : sum local = 0.00108687792629, global = 7.77979638903e-06, cumulative = 0.0369704276912
ExecutionTime = 4.13 s  ClockTime = 4 s

Time = 55

smoothSolver:  Solving for Ux, Initial residual = 0.000279632198583, Final residual = 2.23755036326e-05, No Iterations 4
smoothSolver:  Solving for Uy, Initial residual = 0.00445772666657, Final residual = 0.000387192684346, No Iterations 4
smoothSolver:  Solving for Uz, Initial residual = 0.00147475136115, Final residual = 0.000125291580852, No Iterations 4
GAMG:  Solving for p, Initial residual = 0.0158048239597, Final residual = 0.000355925317169, No Iterations 4
time step continuity errors : sum local = 0.000885648122848, global = 1.1233393673e-05, cumulative = 0.0369816610849
ExecutionTime = 4.19 s  ClockTime = 4 s

Time = 56

smoothSolver:  Solving for Ux, Initial residual = 0.000279503374537, Final residual = 2.24074510506e-05, No Iterations 4
smoothSolver:  Solving for Uy, Initial residual = 0.00438763249737, Final residual = 0.000381602590127, No Iterations 4
smoothSolver:  Solving for Uz, Initial residual = 0.00145488107238, Final residual = 0.000123662622226, No Iterations 4
GAMG:  Solving for p, Initial residual = 0.0148364809052, Final residual = 0.000280561312761, No Iterations 4
time step continuity errors : sum local = 0.000683673965219, global = 9.19171393099e-06, cumulative = 0.0369908527988
ExecutionTime = 4.26 s  ClockTime = 4 s

Time = 57

smoothSolver:  Solving for Ux, Initial residual = 0.00027932520216, Final residual = 2.24345700047e-05, No Iterations 4
smoothSolver:  Solving for Uy, Initial residual = 0.00431995228149, Final residual = 0.000376095121031, No Iterations 4
smoothSolver:  Solving for Uz, Initial residual = 0.00143511242217, Final residual = 0.000122051195675, No Iterations 4
GAMG:  Solving for p, Initial residual = 0.0139051831488, Final residual = 0.000553459610645, No Iterations 3
time step continuity errors : sum local = 0.0013224224533, global = -8.40365952838e-06, cumulative = 0.0369824491393
ExecutionTime = 4.35 s  ClockTime = 4 s

Time = 58

smoothSolver:  Solving for Ux, Initial residual = 0.000279309270702, Final residual = 2.24724584598e-05, No Iterations 4
smoothSolver:  Solving for Uy, Initial residual = 0.00425639083185, Final residual = 0.000370933164022, No Iterations 4
smoothSolver:  Solving for Uz, Initial residual = 0.00141621020136, Final residual = 0.000120538349949, No Iterations 4
GAMG:  Solving for p, Initial residual = 0.0130739157253, Final residual = 0.000579472728937, No Iterations 3
time step continuity errors : sum local = 0.00135919446697, global = -4.68853254221e-06, cumulative = 0.0369777606068
ExecutionTime = 4.42 s  ClockTime = 4 s

Time = 59

smoothSolver:  Solving for Ux, Initial residual = 0.000279550500495, Final residual = 2.25247606793e-05, No Iterations 4
smoothSolver:  Solving for Uy, Initial residual = 0.00419622161914, Final residual = 0.000365870077519, No Iterations 4
smoothSolver:  Solving for Uz, Initial residual = 0.00139771886174, Final residual = 0.000119067600319, No Iterations 4
GAMG:  Solving for p, Initial residual = 0.0124235536061, Final residual = 0.000274916537946, No Iterations 4
time step continuity errors : sum local = 0.000633491728825, global = 7.06527034624e-06, cumulative = 0.0369848258771
ExecutionTime = 4.49 s  ClockTime = 4 s

Time = 60

smoothSolver:  Solving for Ux, Initial residual = 0.000279524238513, Final residual = 2.25706127554e-05, No Iterations 4
smoothSolver:  Solving for Uy, Initial residual = 0.00413471971567, Final residual = 0.000360889922724, No Iterations 4
smoothSolver:  Solving for Uz, Initial residual = 0.00137938784453, Final residual = 0.000117594991188, No Iterations 4
GAMG:  Solving for p, Initial residual = 0.0117147455207, Final residual = 0.000256561001673, No Iterations 4
time step continuity errors : sum local = 0.000580888058168, global = 9.76054765999e-06, cumulative = 0.0369945864248
ExecutionTime = 4.57 s  ClockTime = 4 s

Time = 61

smoothSolver:  Solving for Ux, Initial residual = 0.000279491650236, Final residual = 2.2596147643e-05, No Iterations 4
smoothSolver:  Solving for Uy, Initial residual = 0.00407585809609, Final residual = 0.000355996989309, No Iterations 4
smoothSolver:  Solving for Uz, Initial residual = 0.0013611091778, Final residual = 0.000116097898138, No Iterations 4
GAMG:  Solving for p, Initial residual = 0.0110820181146, Final residual = 0.000531647847146, No Iterations 3
time step continuity errors : sum local = 0.00118378094285, global = -9.8551029561e-06, cumulative = 0.0369847313218
ExecutionTime = 4.64 s  ClockTime = 4 s

Time = 62

smoothSolver:  Solving for Ux, Initial residual = 0.000279618262599, Final residual = 2.26290208386e-05, No Iterations 4
smoothSolver:  Solving for Uy, Initial residual = 0.00401907496688, Final residual = 0.000351113304746, No Iterations 4
smoothSolver:  Solving for Uz, Initial residual = 0.0013432033625, Final residual = 0.000114606297193, No Iterations 4
GAMG:  Solving for p, Initial residual = 0.0105727865654, Final residual = 0.000238292326726, No Iterations 4
time step continuity errors : sum local = 0.000522340096134, global = 7.8058223541e-06, cumulative = 0.0369925371442
ExecutionTime = 4.7 s  ClockTime = 4 s

Time = 63

smoothSolver:  Solving for Ux, Initial residual = 0.00027973985251, Final residual = 2.26751765995e-05, No Iterations 4
smoothSolver:  Solving for Uy, Initial residual = 0.00396295828662, Final residual = 0.000346420511091, No Iterations 4
smoothSolver:  Solving for Uz, Initial residual = 0.00132624782571, Final residual = 0.000113172279569, No Iterations 4
GAMG:  Solving for p, Initial residual = 0.0100252436088, Final residual = 0.000470695331884, No Iterations 3
time step continuity errors : sum local = 0.00101624323213, global = -8.66348306661e-06, cumulative = 0.0369838736611
ExecutionTime = 4.77 s  ClockTime = 4 s

Time = 64

smoothSolver:  Solving for Ux, Initial residual = 0.000280074898105, Final residual = 2.27268140214e-05, No Iterations 4
smoothSolver:  Solving for Uy, Initial residual = 0.00390842714894, Final residual = 0.000341781272404, No Iterations 4
smoothSolver:  Solving for Uz, Initial residual = 0.00130918149287, Final residual = 0.000111730687796, No Iterations 4
GAMG:  Solving for p, Initial residual = 0.00952180921402, Final residual = 0.000215766176681, No Iterations 4
time step continuity errors : sum local = 0.00045926751629, global = 5.98354079351e-06, cumulative = 0.0369898572019
ExecutionTime = 4.86 s  ClockTime = 4 s

Time = 65

smoothSolver:  Solving for Ux, Initial residual = 0.000280561067036, Final residual = 2.27860457214e-05, No Iterations 4
smoothSolver:  Solving for Uy, Initial residual = 0.00385488069137, Final residual = 0.000337077002221, No Iterations 4
smoothSolver:  Solving for Uz, Initial residual = 0.00129209168889, Final residual = 0.000110289101275, No Iterations 4
GAMG:  Solving for p, Initial residual = 0.00911045800877, Final residual = 0.000219893110495, No Iterations 4
time step continuity errors : sum local = 0.000461406458265, global = 7.45191264396e-06, cumulative = 0.0369973091145
ExecutionTime = 4.92 s  ClockTime = 4 s

Time = 66

smoothSolver:  Solving for Ux, Initial residual = 0.000280507739953, Final residual = 2.2812264488e-05, No Iterations 4
smoothSolver:  Solving for Uy, Initial residual = 0.00380021865544, Final residual = 0.000332523808052, No Iterations 4
smoothSolver:  Solving for Uz, Initial residual = 0.00127470461257, Final residual = 0.000108857171582, No Iterations 4
GAMG:  Solving for p, Initial residual = 0.0087078023372, Final residual = 0.000203447748244, No Iterations 4
time step continuity errors : sum local = 0.000421043771006, global = 6.9067168211e-06, cumulative = 0.0370042158314
ExecutionTime = 4.99 s  ClockTime = 5 s

Time = 67

smoothSolver:  Solving for Ux, Initial residual = 0.000280758802311, Final residual = 2.28231920298e-05, No Iterations 4
smoothSolver:  Solving for Uy, Initial residual = 0.00374561546175, Final residual = 0.000327974283614, No Iterations 4
smoothSolver:  Solving for Uz, Initial residual = 0.00125692197144, Final residual = 0.00010743666031, No Iterations 4
GAMG:  Solving for p, Initial residual = 0.0083282474228, Final residual = 0.000184074892937, No Iterations 4
time step continuity errors : sum local = 0.000375969493514, global = 5.04865669245e-06, cumulative = 0.037009264488
ExecutionTime = 5.06 s  ClockTime = 5 s

Time = 68

smoothSolver:  Solving for Ux, Initial residual = 0.000280645965296, Final residual = 2.28464419767e-05, No Iterations 4
smoothSolver:  Solving for Uy, Initial residual = 0.00369342383226, Final residual = 0.000323575131077, No Iterations 4
smoothSolver:  Solving for Uz, Initial residual = 0.00124007381866, Final residual = 0.000106048781163, No Iterations 4
GAMG:  Solving for p, Initial residual = 0.00796932207012, Final residual = 0.000165139998588, No Iterations 4
time step continuity errors : sum local = 0.000333103679959, global = 4.08787721191e-06, cumulative = 0.0370133523653
ExecutionTime = 5.13 s  ClockTime = 5 s

Time = 69

smoothSolver:  Solving for Ux, Initial residual = 0.000280915857586, Final residual = 2.28824111967e-05, No Iterations 4
smoothSolver:  Solving for Uy, Initial residual = 0.00364299653135, Final residual = 0.00031917750876, No Iterations 4
smoothSolver:  Solving for Uz, Initial residual = 0.00122375633574, Final residual = 0.000104670578064, No Iterations 4
GAMG:  Solving for p, Initial residual = 0.00769919040836, Final residual = 0.000171647665445, No Iterations 4
time step continuity errors : sum local = 0.000342002764186, global = 3.11171896541e-06, cumulative = 0.0370164640842
ExecutionTime = 5.2 s  ClockTime = 5 s

Time = 70

smoothSolver:  Solving for Ux, Initial residual = 0.000281189606438, Final residual = 2.29367885408e-05, No Iterations 4
smoothSolver:  Solving for Uy, Initial residual = 0.00359392674837, Final residual = 0.000315019861123, No Iterations 4
smoothSolver:  Solving for Uz, Initial residual = 0.00120857464094, Final residual = 0.000103374817923, No Iterations 4
GAMG:  Solving for p, Initial residual = 0.00742567363076, Final residual = 0.000166451934572, No Iterations 4
time step continuity errors : sum local = 0.000327703235583, global = 2.81713638387e-06, cumulative = 0.0370192812206
ExecutionTime = 5.27 s  ClockTime = 5 s

Time = 71

smoothSolver:  Solving for Ux, Initial residual = 0.000281597770556, Final residual = 2.29890201479e-05, No Iterations 4
smoothSolver:  Solving for Uy, Initial residual = 0.0035463720355, Final residual = 0.000310859919054, No Iterations 4
smoothSolver:  Solving for Uz, Initial residual = 0.00119380897969, Final residual = 0.000102109503132, No Iterations 4
GAMG:  Solving for p, Initial residual = 0.00720461473534, Final residual = 0.000179217745039, No Iterations 4
time step continuity errors : sum local = 0.000348672004177, global = 2.94971344936e-06, cumulative = 0.0370222309341
ExecutionTime = 5.34 s  ClockTime = 5 s

Time = 72

smoothSolver:  Solving for Ux, Initial residual = 0.000281612881925, Final residual = 2.30100127639e-05, No Iterations 4
smoothSolver:  Solving for Uy, Initial residual = 0.00349772470791, Final residual = 0.000306810232198, No Iterations 4
smoothSolver:  Solving for Uz, Initial residual = 0.00117884119432, Final residual = 0.000100869059956, No Iterations 4
GAMG:  Solving for p, Initial residual = 0.0069761328295, Final residual = 0.000167264459426, No Iterations 4
time step continuity errors : sum local = 0.000321670062383, global = 2.87471819006e-06, cumulative = 0.0370251056522
ExecutionTime = 5.41 s  ClockTime = 5 s

Time = 73

smoothSolver:  Solving for Ux, Initial residual = 0.000282186073959, Final residual = 2.3021276511e-05, No Iterations 4
smoothSolver:  Solving for Uy, Initial residual = 0.0034491360084, Final residual = 0.000302765158467, No Iterations 4
smoothSolver:  Solving for Uz, Initial residual = 0.00116332806627, Final residual = 9.96369617901e-05, No Iterations 4
GAMG:  Solving for p, Initial residual = 0.00677125324757, Final residual = 0.0001590268686, No Iterations 4
time step continuity errors : sum local = 0.000302386732847, global = 2.10276151938e-06, cumulative = 0.0370272084138
ExecutionTime = 5.49 s  ClockTime = 5 s

Time = 74

smoothSolver:  Solving for Ux, Initial residual = 0.00028190928807, Final residual = 2.30455704904e-05, No Iterations 4
smoothSolver:  Solving for Uy, Initial residual = 0.00340319782193, Final residual = 0.000298830884206, No Iterations 4
smoothSolver:  Solving for Uz, Initial residual = 0.00114859811301, Final residual = 9.84155280521e-05, No Iterations 4
GAMG:  Solving for p, Initial residual = 0.00659096462085, Final residual = 0.000153900123067, No Iterations 4
time step continuity errors : sum local = 0.000289421837846, global = 2.5027892702e-06, cumulative = 0.037029711203
ExecutionTime = 5.56 s  ClockTime = 5 s

Time = 75

smoothSolver:  Solving for Ux, Initial residual = 0.00028204176284, Final residual = 2.30909426672e-05, No Iterations 4
smoothSolver:  Solving for Uy, Initial residual = 0.0033598029956, Final residual = 0.000295167394207, No Iterations 4
smoothSolver:  Solving for Uz, Initial residual = 0.00113505676209, Final residual = 9.72682640331e-05, No Iterations 4
GAMG:  Solving for p, Initial residual = 0.00640929236686, Final residual = 0.000149638814139, No Iterations 4
time step continuity errors : sum local = 0.000278422562257, global = 2.36683567326e-06, cumulative = 0.0370320780387
ExecutionTime = 5.65 s  ClockTime = 5 s

Time = 76

smoothSolver:  Solving for Ux, Initial residual = 0.000282359959855, Final residual = 2.31302656148e-05, No Iterations 4
smoothSolver:  Solving for Uy, Initial residual = 0.00331647505021, Final residual = 0.000291375755086, No Iterations 4
smoothSolver:  Solving for Uz, Initial residual = 0.00112108291389, Final residual = 9.60709606216e-05, No Iterations 4
GAMG:  Solving for p, Initial residual = 0.00626609901895, Final residual = 0.000159211907501, No Iterations 4
time step continuity errors : sum local = 0.000293139956159, global = 2.68738063142e-06, cumulative = 0.0370347654193
ExecutionTime = 5.72 s  ClockTime = 5 s

Time = 77

smoothSolver:  Solving for Ux, Initial residual = 0.000282417764687, Final residual = 2.31398860833e-05, No Iterations 4
smoothSolver:  Solving for Uy, Initial residual = 0.00327126538714, Final residual = 0.000287594064052, No Iterations 4
smoothSolver:  Solving for Uz, Initial residual = 0.00110622167761, Final residual = 9.48499862274e-05, No Iterations 4
GAMG:  Solving for p, Initial residual = 0.00612538183256, Final residual = 0.000151741432673, No Iterations 4
time step continuity errors : sum local = 0.000276523576002, global = 2.71652301726e-06, cumulative = 0.0370374819424
ExecutionTime = 5.79 s  ClockTime = 5 s

Time = 78

smoothSolver:  Solving for Ux, Initial residual = 0.00028225938949, Final residual = 2.31469577408e-05, No Iterations 4
smoothSolver:  Solving for Uy, Initial residual = 0.00322858839019, Final residual = 0.000283937714781, No Iterations 4
smoothSolver:  Solving for Uz, Initial residual = 0.00109201601213, Final residual = 9.3691827447e-05, No Iterations 4
GAMG:  Solving for p, Initial residual = 0.00602260583637, Final residual = 0.000149044350548, No Iterations 4
time step continuity errors : sum local = 0.000268874264491, global = 3.75302563093e-06, cumulative = 0.037041234968
ExecutionTime = 5.85 s  ClockTime = 5 s

Time = 79

smoothSolver:  Solving for Ux, Initial residual = 0.000282111165498, Final residual = 2.31692182336e-05, No Iterations 4
smoothSolver:  Solving for Uy, Initial residual = 0.00318782170446, Final residual = 0.000280383922771, No Iterations 4
smoothSolver:  Solving for Uz, Initial residual = 0.00107855413742, Final residual = 9.25445081351e-05, No Iterations 4
GAMG:  Solving for p, Initial residual = 0.0059303267196, Final residual = 0.000145097659987, No Iterations 4
time step continuity errors : sum local = 0.000259237207087, global = 3.60046103208e-06, cumulative = 0.037044835429
ExecutionTime = 5.92 s  ClockTime = 5 s

Time = 80

smoothSolver:  Solving for Ux, Initial residual = 0.000282253626039, Final residual = 2.31809716827e-05, No Iterations 4
smoothSolver:  Solving for Uy, Initial residual = 0.00314772024405, Final residual = 0.000276900985083, No Iterations 4
smoothSolver:  Solving for Uz, Initial residual = 0.00106472040183, Final residual = 9.13807985133e-05, No Iterations 4
GAMG:  Solving for p, Initial residual = 0.00582264846423, Final residual = 0.000136835774452, No Iterations 4
time step continuity errors : sum local = 0.000242156470499, global = 3.48313341541e-06, cumulative = 0.0370483185624
ExecutionTime = 6.01 s  ClockTime = 6 s

Time = 81

smoothSolver:  Solving for Ux, Initial residual = 0.000282347981636, Final residual = 2.31949070487e-05, No Iterations 4
smoothSolver:  Solving for Uy, Initial residual = 0.00310773352931, Final residual = 0.000273340452123, No Iterations 4
smoothSolver:  Solving for Uz, Initial residual = 0.0010504664546, Final residual = 9.02036880371e-05, No Iterations 4
GAMG:  Solving for p, Initial residual = 0.0057831074116, Final residual = 0.000158804067453, No Iterations 4
time step continuity errors : sum local = 0.000278407947778, global = 1.32703755778e-06, cumulative = 0.0370496456
ExecutionTime = 6.08 s  ClockTime = 6 s

Time = 82

smoothSolver:  Solving for Ux, Initial residual = 0.000282027190713, Final residual = 2.31999178674e-05, No Iterations 4
smoothSolver:  Solving for Uy, Initial residual = 0.00306657205982, Final residual = 0.000269837712964, No Iterations 4
smoothSolver:  Solving for Uz, Initial residual = 0.00103697041532, Final residual = 8.90342663005e-05, No Iterations 4
GAMG:  Solving for p, Initial residual = 0.00570112856436, Final residual = 0.000157903708234, No Iterations 4
time step continuity errors : sum local = 0.000274200373232, global = 1.10364215288e-06, cumulative = 0.0370507492421
ExecutionTime = 6.14 s  ClockTime = 6 s

Time = 83

smoothSolver:  Solving for Ux, Initial residual = 0.000282090240475, Final residual = 2.31816570768e-05, No Iterations 4
smoothSolver:  Solving for Uy, Initial residual = 0.0030241999542, Final residual = 0.000266217535098, No Iterations 4
smoothSolver:  Solving for Uz, Initial residual = 0.00102242717098, Final residual = 8.77898870911e-05, No Iterations 4
GAMG:  Solving for p, Initial residual = 0.00561750623041, Final residual = 0.000162594123658, No Iterations 4
time step continuity errors : sum local = 0.000279766283128, global = 1.86397085015e-06, cumulative = 0.037052613213
ExecutionTime = 6.21 s  ClockTime = 6 s

Time = 84

smoothSolver:  Solving for Ux, Initial residual = 0.000281846779286, Final residual = 2.31294483035e-05, No Iterations 4
smoothSolver:  Solving for Uy, Initial residual = 0.00297929753999, Final residual = 0.00026233121921, No Iterations 4
smoothSolver:  Solving for Uz, Initial residual = 0.00100708320821, Final residual = 8.64401146328e-05, No Iterations 4
GAMG:  Solving for p, Initial residual = 0.00551289086267, Final residual = 0.000164608512157, No Iterations 4
time step continuity errors : sum local = 0.000280706594743, global = 3.60250752297e-06, cumulative = 0.0370562157205
ExecutionTime = 6.28 s  ClockTime = 6 s

Time = 85

smoothSolver:  Solving for Ux, Initial residual = 0.000280655920254, Final residual = 2.29450857567e-05, No Iterations 4
smoothSolver:  Solving for Uy, Initial residual = 0.00292372445796, Final residual = 0.000257566649725, No Iterations 4
smoothSolver:  Solving for Uz, Initial residual = 0.000987167715962, Final residual = 8.47448657176e-05, No Iterations 4
GAMG:  Solving for p, Initial residual = 0.00539929844221, Final residual = 0.000157308839088, No Iterations 4
time step continuity errors : sum local = 0.000265949648104, global = 3.19609669709e-06, cumulative = 0.0370594118172
ExecutionTime = 6.35 s  ClockTime = 6 s

Time = 86

smoothSolver:  Solving for Ux, Initial residual = 0.000279552965182, Final residual = 2.30721067078e-05, No Iterations 4
smoothSolver:  Solving for Uy, Initial residual = 0.00290397160886, Final residual = 0.000256022641277, No Iterations 4
smoothSolver:  Solving for Uz, Initial residual = 0.000983075993689, Final residual = 8.4460811642e-05, No Iterations 4
GAMG:  Solving for p, Initial residual = 0.00528543147389, Final residual = 0.000156316911624, No Iterations 4
time step continuity errors : sum local = 0.000261995993068, global = 1.23087901835e-06, cumulative = 0.0370606426962
ExecutionTime = 6.42 s  ClockTime = 6 s

Time = 87

smoothSolver:  Solving for Ux, Initial residual = 0.000279557905676, Final residual = 2.31454534281e-05, No Iterations 4
smoothSolver:  Solving for Uy, Initial residual = 0.00287643434383, Final residual = 0.000253751037883, No Iterations 4
smoothSolver:  Solving for Uz, Initial residual = 0.000975247663252, Final residual = 8.38381217612e-05, No Iterations 4
GAMG:  Solving for p, Initial residual = 0.00517537440713, Final residual = 0.000159698014933, No Iterations 4
time step continuity errors : sum local = 0.000265332825722, global = -3.82890564381e-07, cumulative = 0.0370602598057
ExecutionTime = 6.49 s  ClockTime = 6 s

Time = 88

smoothSolver:  Solving for Ux, Initial residual = 0.000279633935523, Final residual = 2.31718258012e-05, No Iterations 4
smoothSolver:  Solving for Uy, Initial residual = 0.00284463222783, Final residual = 0.000251080649177, No Iterations 4
smoothSolver:  Solving for Uz, Initial residual = 0.000965209719531, Final residual = 8.30215326228e-05, No Iterations 4
GAMG:  Solving for p, Initial residual = 0.00507027885527, Final residual = 0.000151597307388, No Iterations 4
time step continuity errors : sum local = 0.000249767822708, global = -9.34549393196e-07, cumulative = 0.0370593252563
ExecutionTime = 6.56 s  ClockTime = 6 s

Time = 89

smoothSolver:  Solving for Ux, Initial residual = 0.000279471836166, Final residual = 2.31855092392e-05, No Iterations 4
smoothSolver:  Solving for Uy, Initial residual = 0.00281234399963, Final residual = 0.000248349535209, No Iterations 4
smoothSolver:  Solving for Uz, Initial residual = 0.000954829095631, Final residual = 8.21705891334e-05, No Iterations 4
GAMG:  Solving for p, Initial residual = 0.00497917123342, Final residual = 0.000143882211812, No Iterations 4
time step continuity errors : sum local = 0.00023511529827, global = -1.37002346283e-06, cumulative = 0.0370579552328
ExecutionTime = 6.64 s  ClockTime = 6 s

Time = 90

smoothSolver:  Solving for Ux, Initial residual = 0.000279210250916, Final residual = 2.31932389069e-05, No Iterations 4
smoothSolver:  Solving for Uy, Initial residual = 0.00278015235608, Final residual = 0.000245626220542, No Iterations 4
smoothSolver:  Solving for Uz, Initial residual = 0.000944441950887, Final residual = 8.1316240171e-05, No Iterations 4
GAMG:  Solving for p, Initial residual = 0.00489984811174, Final residual = 0.000135768155875, No Iterations 4
time step continuity errors : sum local = 0.000220061496455, global = -1.28403219336e-06, cumulative = 0.0370566712006
ExecutionTime = 6.71 s  ClockTime = 6 s

Time = 91

smoothSolver:  Solving for Ux, Initial residual = 0.000278945852695, Final residual = 2.31900815141e-05, No Iterations 4
smoothSolver:  Solving for Uy, Initial residual = 0.00274727001694, Final residual = 0.000242838835715, No Iterations 4
smoothSolver:  Solving for Uz, Initial residual = 0.000933727566338, Final residual = 8.04318377484e-05, No Iterations 4
GAMG:  Solving for p, Initial residual = 0.00482019887148, Final residual = 0.000138130943762, No Iterations 4
time step continuity errors : sum local = 0.000222091432778, global = -2.14499919002e-06, cumulative = 0.0370545262014
ExecutionTime = 6.8 s  ClockTime = 6 s

Time = 92

smoothSolver:  Solving for Ux, Initial residual = 0.000278635206054, Final residual = 2.31738890098e-05, No Iterations 4
smoothSolver:  Solving for Uy, Initial residual = 0.00271402424983, Final residual = 0.000239992370244, No Iterations 4
smoothSolver:  Solving for Uz, Initial residual = 0.000922539688325, Final residual = 7.95025464556e-05, No Iterations 4
GAMG:  Solving for p, Initial residual = 0.00474910219975, Final residual = 0.000136371911474, No Iterations 4
time step continuity errors : sum local = 0.00021754854455, global = -2.07265370881e-06, cumulative = 0.0370524535477
ExecutionTime = 6.87 s  ClockTime = 6 s

Time = 93

smoothSolver:  Solving for Ux, Initial residual = 0.000278186073854, Final residual = 2.3165142926e-05, No Iterations 4
smoothSolver:  Solving for Uy, Initial residual = 0.00268243004237, Final residual = 0.000237291426523, No Iterations 4
smoothSolver:  Solving for Uz, Initial residual = 0.000911997466188, Final residual = 7.86267703323e-05, No Iterations 4
GAMG:  Solving for p, Initial residual = 0.00468677675188, Final residual = 0.000135798228688, No Iterations 4
time step continuity errors : sum local = 0.000214950993645, global = -2.07893280072e-06, cumulative = 0.0370503746149
ExecutionTime = 6.93 s  ClockTime = 6 s

Time = 94

smoothSolver:  Solving for Ux, Initial residual = 0.000277726649267, Final residual = 2.31390021477e-05, No Iterations 4
smoothSolver:  Solving for Uy, Initial residual = 0.00265016410352, Final residual = 0.000234528779557, No Iterations 4
smoothSolver:  Solving for Uz, Initial residual = 0.0009010590449, Final residual = 7.77154837432e-05, No Iterations 4
GAMG:  Solving for p, Initial residual = 0.00462898445143, Final residual = 0.000136886592455, No Iterations 4
time step continuity errors : sum local = 0.00021501005335, global = -2.16907357837e-06, cumulative = 0.0370482055413
ExecutionTime = 7 s  ClockTime = 7 s

Time = 95

smoothSolver:  Solving for Ux, Initial residual = 0.000277148990442, Final residual = 2.31129939394e-05, No Iterations 4
smoothSolver:  Solving for Uy, Initial residual = 0.00261913272611, Final residual = 0.000231865648137, No Iterations 4
smoothSolver:  Solving for Uz, Initial residual = 0.000890540072866, Final residual = 7.68376072486e-05, No Iterations 4
GAMG:  Solving for p, Initial residual = 0.00457203900698, Final residual = 0.000138902362077, No Iterations 4
time step continuity errors : sum local = 0.000216512636799, global = -2.28358386361e-06, cumulative = 0.0370459219575
ExecutionTime = 7.09 s  ClockTime = 7 s

Time = 96

smoothSolver:  Solving for Ux, Initial residual = 0.000276566376096, Final residual = 2.30748517313e-05, No Iterations 4
smoothSolver:  Solving for Uy, Initial residual = 0.00258777751405, Final residual = 0.00022918223766, No Iterations 4
smoothSolver:  Solving for Uz, Initial residual = 0.000879766606129, Final residual = 7.59354181535e-05, No Iterations 4
GAMG:  Solving for p, Initial residual = 0.00451368055121, Final residual = 0.000140816755987, No Iterations 4
time step continuity errors : sum local = 0.000217838116488, global = -2.44872838322e-06, cumulative = 0.0370434732291
ExecutionTime = 7.14 s  ClockTime = 7 s

Time = 97

smoothSolver:  Solving for Ux, Initial residual = 0.00027592036405, Final residual = 2.30416841798e-05, No Iterations 4
smoothSolver:  Solving for Uy, Initial residual = 0.00255773809543, Final residual = 0.000226617839152, No Iterations 4
smoothSolver:  Solving for Uz, Initial residual = 0.000869429920664, Final residual = 7.50683890843e-05, No Iterations 4
GAMG:  Solving for p, Initial residual = 0.00446086534553, Final residual = 0.000142503587759, No Iterations 4
time step continuity errors : sum local = 0.000218793532776, global = -2.64091847049e-06, cumulative = 0.0370408323106
ExecutionTime = 7.21 s  ClockTime = 7 s

Time = 98

smoothSolver:  Solving for Ux, Initial residual = 0.000275311778107, Final residual = 2.29942034463e-05, No Iterations 4
smoothSolver:  Solving for Uy, Initial residual = 0.00252684320105, Final residual = 0.000223985715548, No Iterations 4
smoothSolver:  Solving for Uz, Initial residual = 0.000858640057118, Final residual = 7.41618771326e-05, No Iterations 4
GAMG:  Solving for p, Initial residual = 0.00441871533175, Final residual = 0.000143501826351, No Iterations 4
time step continuity errors : sum local = 0.000218680239095, global = -2.79537977958e-06, cumulative = 0.0370380369308
ExecutionTime = 7.28 s  ClockTime = 7 s

Time = 99

smoothSolver:  Solving for Ux, Initial residual = 0.000274541879964, Final residual = 2.29503018866e-05, No Iterations 4
smoothSolver:  Solving for Uy, Initial residual = 0.0024975000529, Final residual = 0.000221468958285, No Iterations 4
smoothSolver:  Solving for Uz, Initial residual = 0.000848363208117, Final residual = 7.33007684637e-05, No Iterations 4
GAMG:  Solving for p, Initial residual = 0.00439557607382, Final residual = 0.000144789143731, No Iterations 4
time step continuity errors : sum local = 0.000219009970877, global = -2.85277063131e-06, cumulative = 0.0370351841602
ExecutionTime = 7.37 s  ClockTime = 7 s

Time = 100

smoothSolver:  Solving for Ux, Initial residual = 0.000273836969543, Final residual = 2.2895505144e-05, No Iterations 4
smoothSolver:  Solving for Uy, Initial residual = 0.00246913113854, Final residual = 0.000218989091658, No Iterations 4
smoothSolver:  Solving for Uz, Initial residual = 0.000837943027051, Final residual = 7.24243746415e-05, No Iterations 4
GAMG:  Solving for p, Initial residual = 0.0043663703191, Final residual = 0.00014422569361, No Iterations 4
time step continuity errors : sum local = 0.000216565958587, global = -2.90017668089e-06, cumulative = 0.0370322839835
ExecutionTime = 7.43 s  ClockTime = 7 s

Time = 101

smoothSolver:  Solving for Ux, Initial residual = 0.000272995970429, Final residual = 2.28408417382e-05, No Iterations 4
smoothSolver:  Solving for Uy, Initial residual = 0.0024418347378, Final residual = 0.000216657829112, No Iterations 4
smoothSolver:  Solving for Uz, Initial residual = 0.000828069679984, Final residual = 7.15924651285e-05, No Iterations 4
GAMG:  Solving for p, Initial residual = 0.00432693672134, Final residual = 0.00014204841762, No Iterations 4
time step continuity errors : sum local = 0.000211758193037, global = -2.95223208086e-06, cumulative = 0.0370293317515
ExecutionTime = 7.53 s  ClockTime = 7 s

Time = 102

smoothSolver:  Solving for Ux, Initial residual = 0.000272179419368, Final residual = 2.27770769226e-05, No Iterations 4
smoothSolver:  Solving for Uy, Initial residual = 0.00241423307384, Final residual = 0.000214317849218, No Iterations 4
smoothSolver:  Solving for Uz, Initial residual = 0.000818199476852, Final residual = 7.07578849358e-05, No Iterations 4
GAMG:  Solving for p, Initial residual = 0.00429620155841, Final residual = 0.000144417026388, No Iterations 4
time step continuity errors : sum local = 0.00021375459115, global = -2.9481308618e-06, cumulative = 0.0370263836206
ExecutionTime = 7.6 s  ClockTime = 7 s

Time = 103

smoothSolver:  Solving for Ux, Initial residual = 0.000271380458108, Final residual = 2.27161362498e-05, No Iterations 4
smoothSolver:  Solving for Uy, Initial residual = 0.00238767762814, Final residual = 0.00021202538162, No Iterations 4
smoothSolver:  Solving for Uz, Initial residual = 0.000808639173532, Final residual = 6.99425228446e-05, No Iterations 4
GAMG:  Solving for p, Initial residual = 0.00427595057982, Final residual = 0.000145508204558, No Iterations 4
time step continuity errors : sum local = 0.000213849704105, global = -3.05743329681e-06, cumulative = 0.0370233261873
ExecutionTime = 7.67 s  ClockTime = 7 s

Time = 104

smoothSolver:  Solving for Ux, Initial residual = 0.000270670207977, Final residual = 2.26669951805e-05, No Iterations 4
smoothSolver:  Solving for Uy, Initial residual = 0.00236151769542, Final residual = 0.000209773322496, No Iterations 4
smoothSolver:  Solving for Uz, Initial residual = 0.000799467420188, Final residual = 6.91631525527e-05, No Iterations 4
GAMG:  Solving for p, Initial residual = 0.00422942569063, Final residual = 0.000164191657043, No Iterations 4
time step continuity errors : sum local = 0.000239626551475, global = -3.24095877279e-06, cumulative = 0.0370200852285
ExecutionTime = 7.74 s  ClockTime = 7 s

Time = 105

smoothSolver:  Solving for Ux, Initial residual = 0.000270056446974, Final residual = 2.26114352814e-05, No Iterations 4
smoothSolver:  Solving for Uy, Initial residual = 0.00233324715094, Final residual = 0.000207375030582, No Iterations 4
smoothSolver:  Solving for Uz, Initial residual = 0.000790021107721, Final residual = 6.83558066354e-05, No Iterations 4
GAMG:  Solving for p, Initial residual = 0.00416148544028, Final residual = 0.000170410370375, No Iterations 4
time step continuity errors : sum local = 0.000247009725346, global = -3.39051034935e-06, cumulative = 0.0370166947182
ExecutionTime = 7.81 s  ClockTime = 7 s

Time = 106

smoothSolver:  Solving for Ux, Initial residual = 0.000269367659839, Final residual = 2.25702222912e-05, No Iterations 4
smoothSolver:  Solving for Uy, Initial residual = 0.00230589829436, Final residual = 0.000205051872927, No Iterations 4
smoothSolver:  Solving for Uz, Initial residual = 0.000781005511441, Final residual = 6.7587199996e-05, No Iterations 4
GAMG:  Solving for p, Initial residual = 0.00409458200237, Final residual = 0.000171817433863, No Iterations 4
time step continuity errors : sum local = 0.00024737001309, global = -3.414408453e-06, cumulative = 0.0370132803097
ExecutionTime = 7.9 s  ClockTime = 7 s

Time = 107

smoothSolver:  Solving for Ux, Initial residual = 0.000268658461315, Final residual = 2.25084157457e-05, No Iterations 4
smoothSolver:  Solving for Uy, Initial residual = 0.00227838445132, Final residual = 0.000202687374339, No Iterations 4
smoothSolver:  Solving for Uz, Initial residual = 0.000771632992334, Final residual = 6.6787257659e-05, No Iterations 4
GAMG:  Solving for p, Initial residual = 0.00401892521631, Final residual = 0.000167235065259, No Iterations 4
time step continuity errors : sum local = 0.000239168476016, global = -3.35621202614e-06, cumulative = 0.0370099240977
ExecutionTime = 7.97 s  ClockTime = 7 s

Time = 108

smoothSolver:  Solving for Ux, Initial residual = 0.00026777033719, Final residual = 2.24532191139e-05, No Iterations 4
smoothSolver:  Solving for Uy, Initial residual = 0.00225247478675, Final residual = 0.000200464531914, No Iterations 4
smoothSolver:  Solving for Uz, Initial residual = 0.000762722169087, Final residual = 6.60273474331e-05, No Iterations 4
GAMG:  Solving for p, Initial residual = 0.00393871391283, Final residual = 0.000159878857285, No Iterations 4
time step continuity errors : sum local = 0.000227146778164, global = -3.28434224179e-06, cumulative = 0.0370066397554
ExecutionTime = 8.04 s  ClockTime = 8 s

Time = 109

smoothSolver:  Solving for Ux, Initial residual = 0.000267018314295, Final residual = 2.23861168114e-05, No Iterations 4
smoothSolver:  Solving for Uy, Initial residual = 0.00222671762096, Final residual = 0.000198236137238, No Iterations 4
smoothSolver:  Solving for Uz, Initial residual = 0.000753662455521, Final residual = 6.52522460258e-05, No Iterations 4
GAMG:  Solving for p, Initial residual = 0.00386512053267, Final residual = 0.00015179792877, No Iterations 4
time step continuity errors : sum local = 0.000214271584019, global = -3.16463371834e-06, cumulative = 0.0370034751217
ExecutionTime = 8.1 s  ClockTime = 8 s

Time = 110

smoothSolver:  Solving for Ux, Initial residual = 0.000266207359342, Final residual = 2.23243293478e-05, No Iterations 4
smoothSolver:  Solving for Uy, Initial residual = 0.00220155487014, Final residual = 0.000196061474941, No Iterations 4
smoothSolver:  Solving for Uz, Initial residual = 0.000744782449563, Final residual = 6.44927329684e-05, No Iterations 4
GAMG:  Solving for p, Initial residual = 0.00380035370088, Final residual = 0.000145063584821, No Iterations 4
time step continuity errors : sum local = 0.000203460721956, global = -3.05290543862e-06, cumulative = 0.0370004222163
ExecutionTime = 8.17 s  ClockTime = 8 s

Time = 111

smoothSolver:  Solving for Ux, Initial residual = 0.000265436176623, Final residual = 2.22624685784e-05, No Iterations 4
smoothSolver:  Solving for Uy, Initial residual = 0.00217659182831, Final residual = 0.000193887294625, No Iterations 4
smoothSolver:  Solving for Uz, Initial residual = 0.000735929508086, Final residual = 6.37338709295e-05, No Iterations 4
GAMG:  Solving for p, Initial residual = 0.00374503568986, Final residual = 0.000141482700781, No Iterations 4
time step continuity errors : sum local = 0.000197193759254, global = -2.87383680644e-06, cumulative = 0.0369975483795
ExecutionTime = 8.24 s  ClockTime = 8 s

Time = 112

smoothSolver:  Solving for Ux, Initial residual = 0.000264629503819, Final residual = 2.21961805218e-05, No Iterations 4
smoothSolver:  Solving for Uy, Initial residual = 0.00215161432754, Final residual = 0.0001917206611, No Iterations 4
smoothSolver:  Solving for Uz, Initial residual = 0.000727093909558, Final residual = 6.29781786249e-05, No Iterations 4
GAMG:  Solving for p, Initial residual = 0.00369484805556, Final residual = 0.000138438073163, No Iterations 4
time step continuity errors : sum local = 0.000191758029316, global = -1.67990807838e-06, cumulative = 0.0369958684714
ExecutionTime = 8.32 s  ClockTime = 8 s

Time = 113

smoothSolver:  Solving for Ux, Initial residual = 0.000263769571414, Final residual = 2.21296779949e-05, No Iterations 4
smoothSolver:  Solving for Uy, Initial residual = 0.00212706704167, Final residual = 0.000189584516327, No Iterations 4
smoothSolver:  Solving for Uz, Initial residual = 0.000718401218226, Final residual = 6.22347205534e-05, No Iterations 4
GAMG:  Solving for p, Initial residual = 0.00364871618119, Final residual = 0.000129639600245, No Iterations 4
time step continuity errors : sum local = 0.000178490448209, global = -2.22720340346e-06, cumulative = 0.036993641268
ExecutionTime = 8.4 s  ClockTime = 8 s

Time = 114

smoothSolver:  Solving for Ux, Initial residual = 0.000262865269468, Final residual = 2.20552910777e-05, No Iterations 4
smoothSolver:  Solving for Uy, Initial residual = 0.00210262647135, Final residual = 0.0001874626685, No Iterations 4
smoothSolver:  Solving for Uz, Initial residual = 0.000709662345023, Final residual = 6.14895861762e-05, No Iterations 4
GAMG:  Solving for p, Initial residual = 0.00360710776396, Final residual = 0.000131782603487, No Iterations 4
time step continuity errors : sum local = 0.000180327791908, global = -2.33975229995e-06, cumulative = 0.0369913015157
ExecutionTime = 8.47 s  ClockTime = 8 s

Time = 115

smoothSolver:  Solving for Ux, Initial residual = 0.000261922244319, Final residual = 2.19802157283e-05, No Iterations 4
smoothSolver:  Solving for Uy, Initial residual = 0.00207876443578, Final residual = 0.000185377683602, No Iterations 4
smoothSolver:  Solving for Uz, Initial residual = 0.000701069687972, Final residual = 6.07576019302e-05, No Iterations 4
GAMG:  Solving for p, Initial residual = 0.00357332558556, Final residual = 0.000135053137139, No Iterations 4
time step continuity errors : sum local = 0.000183713346261, global = -2.41701484719e-06, cumulative = 0.0369888845009
ExecutionTime = 8.54 s  ClockTime = 8 s

Time = 116

smoothSolver:  Solving for Ux, Initial residual = 0.000260940937336, Final residual = 2.18990972401e-05, No Iterations 4
smoothSolver:  Solving for Uy, Initial residual = 0.00205492006188, Final residual = 0.000183292298285, No Iterations 4
smoothSolver:  Solving for Uz, Initial residual = 0.000692384891847, Final residual = 6.00204539077e-05, No Iterations 4
GAMG:  Solving for p, Initial residual = 0.00355629547506, Final residual = 0.000136601270006, No Iterations 4
time step continuity errors : sum local = 0.000184744911725, global = -2.45140451355e-06, cumulative = 0.0369864330963
ExecutionTime = 8.61 s  ClockTime = 8 s

Time = 117

smoothSolver:  Solving for Ux, Initial residual = 0.000259981106888, Final residual = 2.18223579026e-05, No Iterations 4
smoothSolver:  Solving for Uy, Initial residual = 0.00203195503546, Final residual = 0.000181283133079, No Iterations 4
smoothSolver:  Solving for Uz, Initial residual = 0.000683866241292, Final residual = 5.92967154734e-05, No Iterations 4
GAMG:  Solving for p, Initial residual = 0.00354794754877, Final residual = 0.000135993416251, No Iterations 4
time step continuity errors : sum local = 0.000182876795344, global = -2.43913768031e-06, cumulative = 0.0369839939587
ExecutionTime = 8.68 s  ClockTime = 8 s

Time = 118

smoothSolver:  Solving for Ux, Initial residual = 0.000259072046346, Final residual = 2.17558930674e-05, No Iterations 4
smoothSolver:  Solving for Uy, Initial residual = 0.00201003278007, Final residual = 0.000179426421153, No Iterations 4
smoothSolver:  Solving for Uz, Initial residual = 0.000675807715579, Final residual = 5.86091737712e-05, No Iterations 4
GAMG:  Solving for p, Initial residual = 0.00352073450861, Final residual = 0.000136225208037, No Iterations 4
time step continuity errors : sum local = 0.000182158438347, global = -2.4521624058e-06, cumulative = 0.0369815417963
ExecutionTime = 8.75 s  ClockTime = 8 s

Time = 119

smoothSolver:  Solving for Ux, Initial residual = 0.000258364181199, Final residual = 2.16893724567e-05, No Iterations 4
smoothSolver:  Solving for Uy, Initial residual = 0.00198842311936, Final residual = 0.000177550163393, No Iterations 4
smoothSolver:  Solving for Uz, Initial residual = 0.000667766930916, Final residual = 5.79206890043e-05, No Iterations 4
GAMG:  Solving for p, Initial residual = 0.00348243200912, Final residual = 0.000142138978984, No Iterations 4
time step continuity errors : sum local = 0.000189005633874, global = -2.50665492408e-06, cumulative = 0.0369790351413
ExecutionTime = 8.82 s  ClockTime = 8 s

Time = 120

smoothSolver:  Solving for Ux, Initial residual = 0.000257531365573, Final residual = 2.16298498541e-05, No Iterations 4
smoothSolver:  Solving for Uy, Initial residual = 0.00196757150811, Final residual = 0.000175734357975, No Iterations 4
smoothSolver:  Solving for Uz, Initial residual = 0.000660113286304, Final residual = 5.72672961969e-05, No Iterations 4
GAMG:  Solving for p, Initial residual = 0.00343854646305, Final residual = 0.000159527959814, No Iterations 4
time step continuity errors : sum local = 0.000210959627765, global = -1.62380842951e-06, cumulative = 0.0369774113329
ExecutionTime = 8.89 s  ClockTime = 8 s

Time = 121

smoothSolver:  Solving for Ux, Initial residual = 0.000256887023067, Final residual = 2.15615564909e-05, No Iterations 4
smoothSolver:  Solving for Uy, Initial residual = 0.00194599868923, Final residual = 0.000173858660323, No Iterations 4
smoothSolver:  Solving for Uz, Initial residual = 0.000652201267334, Final residual = 5.65898671111e-05, No Iterations 4
GAMG:  Solving for p, Initial residual = 0.00339655151044, Final residual = 0.000145329729748, No Iterations 4
time step continuity errors : sum local = 0.000191173846311, global = -2.40651194232e-06, cumulative = 0.036975004821
ExecutionTime = 8.97 s  ClockTime = 8 s

Time = 122

smoothSolver:  Solving for Ux, Initial residual = 0.000256036221598, Final residual = 2.15035832714e-05, No Iterations 4
smoothSolver:  Solving for Uy, Initial residual = 0.00192567624022, Final residual = 0.000172101751736, No Iterations 4
smoothSolver:  Solving for Uz, Initial residual = 0.000644781987302, Final residual = 5.5952951268e-05, No Iterations 4
GAMG:  Solving for p, Initial residual = 0.00334800155585, Final residual = 0.000147691935295, No Iterations 4
time step continuity errors : sum local = 0.000193222032414, global = -2.39653744979e-06, cumulative = 0.0369726082835
ExecutionTime = 9.04 s  ClockTime = 9 s

Time = 123

smoothSolver:  Solving for Ux, Initial residual = 0.000255242792886, Final residual = 2.14393710014e-05, No Iterations 4
smoothSolver:  Solving for Uy, Initial residual = 0.00190495047179, Final residual = 0.000170307910596, No Iterations 4
[...]
smoothSolver:  Solving for Uz, Initial residual = 3.53096765675e-05, Final residual = 5.59161419615e-06, No Iterations 3
GAMG:  Solving for p, Initial residual = 3.83431095922e-05, Final residual = 1.38014524668e-06, No Iterations 7
time step continuity errors : sum local = 8.81328853003e-07, global = 5.06048380677e-09, cumulative = 0.036979425722
ExecutionTime = 39.45 s  ClockTime = 39 s

Time = 530

smoothSolver:  Solving for Ux, Initial residual = 0.00010597189537, Final residual = 9.29695733125e-06, No Iterations 4
smoothSolver:  Solving for Uy, Initial residual = 0.000118880860506, Final residual = 1.07623231309e-05, No Iterations 4
smoothSolver:  Solving for Uz, Initial residual = 3.51494567368e-05, Final residual = 5.56616581865e-06, No Iterations 3
GAMG:  Solving for p, Initial residual = 3.81400913347e-05, Final residual = 1.36688029097e-06, No Iterations 7
time step continuity errors : sum local = 8.726129229e-07, global = 5.00789658559e-09, cumulative = 0.0369794307299
ExecutionTime = 39.53 s  ClockTime = 39 s

Time = 531

smoothSolver:  Solving for Ux, Initial residual = 0.000105778329753, Final residual = 9.27979775328e-06, No Iterations 4
smoothSolver:  Solving for Uy, Initial residual = 0.000118344424819, Final residual = 1.07141242081e-05, No Iterations 4
smoothSolver:  Solving for Uz, Initial residual = 3.49901650333e-05, Final residual = 5.54086900035e-06, No Iterations 3
GAMG:  Solving for p, Initial residual = 3.79365495301e-05, Final residual = 1.36916612006e-06, No Iterations 7
time step continuity errors : sum local = 8.73828457089e-07, global = 5.00194846405e-09, cumulative = 0.0369794357319
ExecutionTime = 39.6 s  ClockTime = 39 s

Time = 532

smoothSolver:  Solving for Ux, Initial residual = 0.000105584771963, Final residual = 9.26264516902e-06, No Iterations 4
smoothSolver:  Solving for Uy, Initial residual = 0.000117811415682, Final residual = 1.06662169192e-05, No Iterations 4
smoothSolver:  Solving for Uz, Initial residual = 3.4831813901e-05, Final residual = 5.51572708016e-06, No Iterations 3
GAMG:  Solving for p, Initial residual = 3.77366164486e-05, Final residual = 1.35700559618e-06, No Iterations 7
time step continuity errors : sum local = 8.65827895313e-07, global = 4.9549374861e-09, cumulative = 0.0369794406868
ExecutionTime = 39.67 s  ClockTime = 39 s

Time = 533

smoothSolver:  Solving for Ux, Initial residual = 0.000105391198177, Final residual = 9.24549927899e-06, No Iterations 4
smoothSolver:  Solving for Uy, Initial residual = 0.000117281341775, Final residual = 1.06185877164e-05, No Iterations 4
smoothSolver:  Solving for Uz, Initial residual = 3.46743965854e-05, Final residual = 5.49073335946e-06, No Iterations 3
GAMG:  Solving for p, Initial residual = 3.75494353686e-05, Final residual = 1.36118501466e-06, No Iterations 7
time step continuity errors : sum local = 8.68256132422e-07, global = 4.94621404189e-09, cumulative = 0.036979445633
ExecutionTime = 39.74 s  ClockTime = 39 s

Time = 534

smoothSolver:  Solving for Ux, Initial residual = 0.000105197603416, Final residual = 9.22835956857e-06, No Iterations 4
smoothSolver:  Solving for Uy, Initial residual = 0.000116754342632, Final residual = 1.05712452416e-05, No Iterations 4
smoothSolver:  Solving for Uz, Initial residual = 3.45179080789e-05, Final residual = 5.46589179283e-06, No Iterations 3
GAMG:  Solving for p, Initial residual = 3.7367471239e-05, Final residual = 1.35761499812e-06, No Iterations 7
time step continuity errors : sum local = 8.65743171829e-07, global = 4.91566881508e-09, cumulative = 0.0369794505487
ExecutionTime = 39.81 s  ClockTime = 39 s

Time = 535

smoothSolver:  Solving for Ux, Initial residual = 0.000105004072375, Final residual = 9.21123395542e-06, No Iterations 4
smoothSolver:  Solving for Uy, Initial residual = 0.000116230361839, Final residual = 1.05241798916e-05, No Iterations 4
smoothSolver:  Solving for Uz, Initial residual = 3.43623563642e-05, Final residual = 5.44119996877e-06, No Iterations 3
GAMG:  Solving for p, Initial residual = 3.71829085657e-05, Final residual = 1.35332503938e-06, No Iterations 7
time step continuity errors : sum local = 8.62774330053e-07, global = 4.88740308102e-09, cumulative = 0.0369794554361
ExecutionTime = 39.88 s  ClockTime = 39 s

Time = 536

smoothSolver:  Solving for Ux, Initial residual = 0.000104810559994, Final residual = 9.19413851525e-06, No Iterations 4
smoothSolver:  Solving for Uy, Initial residual = 0.000115709482351, Final residual = 1.047738044e-05, No Iterations 4
smoothSolver:  Solving for Uz, Initial residual = 3.42077279688e-05, Final residual = 9.96641281823e-06, No Iterations 2
GAMG:  Solving for p, Initial residual = 0.000211934686453, Final residual = 9.70438027206e-06, No Iterations 8
time step continuity errors : sum local = 6.18528115456e-06, global = -2.11901788385e-08, cumulative = 0.0369794342459
ExecutionTime = 39.95 s  ClockTime = 39 s

Time = 537

smoothSolver:  Solving for Ux, Initial residual = 0.000104576056484, Final residual = 9.17390583027e-06, No Iterations 4
smoothSolver:  Solving for Uy, Initial residual = 0.000109868624095, Final residual = 9.91754826738e-06, No Iterations 4
smoothSolver:  Solving for Uz, Initial residual = 3.43246972103e-05, Final residual = 5.43582497108e-06, No Iterations 3
GAMG:  Solving for p, Initial residual = 0.000112814525304, Final residual = 5.00036993654e-06, No Iterations 9
time step continuity errors : sum local = 3.18640677721e-06, global = 1.53494549583e-08, cumulative = 0.0369794495954
ExecutionTime = 40.03 s  ClockTime = 40 s

Time = 538

smoothSolver:  Solving for Ux, Initial residual = 0.000104386249987, Final residual = 9.15724596556e-06, No Iterations 4
smoothSolver:  Solving for Uy, Initial residual = 0.000111184504014, Final residual = 1.00530315351e-05, No Iterations 4
smoothSolver:  Solving for Uz, Initial residual = 3.40698842474e-05, Final residual = 9.92625288122e-06, No Iterations 2
GAMG:  Solving for p, Initial residual = 0.000132000404698, Final residual = 5.29121859049e-06, No Iterations 8
time step continuity errors : sum local = 3.3709593534e-06, global = 6.06543792155e-09, cumulative = 0.0369794556608
ExecutionTime = 40.1 s  ClockTime = 40 s

Time = 539

smoothSolver:  Solving for Ux, Initial residual = 0.000104156090938, Final residual = 9.13733738366e-06, No Iterations 4
smoothSolver:  Solving for Uy, Initial residual = 0.000107693662165, Final residual = 9.71551816864e-06, No Iterations 4
smoothSolver:  Solving for Uz, Initial residual = 3.40974460476e-05, Final residual = 9.93497694184e-06, No Iterations 2
GAMG:  Solving for p, Initial residual = 0.000114689667866, Final residual = 5.11269937917e-06, No Iterations 7
time step continuity errors : sum local = 3.25659577442e-06, global = 1.79906206435e-08, cumulative = 0.0369794736514
ExecutionTime = 40.19 s  ClockTime = 40 s

Time = 540

smoothSolver:  Solving for Ux, Initial residual = 0.000103929386296, Final residual = 9.11772712973e-06, No Iterations 4
smoothSolver:  Solving for Uy, Initial residual = 0.000104923204789, Final residual = 9.45286880308e-06, No Iterations 4
smoothSolver:  Solving for Uz, Initial residual = 3.40720130784e-05, Final residual = 9.92769713229e-06, No Iterations 2
GAMG:  Solving for p, Initial residual = 7.51013108593e-05, Final residual = 3.34380061158e-06, No Iterations 7
time step continuity errors : sum local = 2.12945135542e-06, global = 1.68355575272e-08, cumulative = 0.036979490487
ExecutionTime = 40.26 s  ClockTime = 40 s

Time = 541

smoothSolver:  Solving for Ux, Initial residual = 0.00010370570925, Final residual = 9.09833162304e-06, No Iterations 4
smoothSolver:  Solving for Uy, Initial residual = 0.000103615609531, Final residual = 9.329339816e-06, No Iterations 4
smoothSolver:  Solving for Uz, Initial residual = 3.39857420546e-05, Final residual = 9.90258131747e-06, No Iterations 2
GAMG:  Solving for p, Initial residual = 5.27745593589e-05, Final residual = 1.68572025417e-06, No Iterations 9
time step continuity errors : sum local = 1.07329582172e-06, global = 3.45815209996e-09, cumulative = 0.0369794939451
ExecutionTime = 40.33 s  ClockTime = 40 s

Time = 542

smoothSolver:  Solving for Ux, Initial residual = 0.000103484809073, Final residual = 9.07912428905e-06, No Iterations 4
smoothSolver:  Solving for Uy, Initial residual = 0.000103249674301, Final residual = 9.29423714128e-06, No Iterations 4
smoothSolver:  Solving for Uz, Initial residual = 3.38636384995e-05, Final residual = 9.86699155159e-06, No Iterations 2
GAMG:  Solving for p, Initial residual = 4.80818757496e-05, Final residual = 1.70509053976e-06, No Iterations 7
time step continuity errors : sum local = 1.08537319546e-06, global = 5.32197470501e-09, cumulative = 0.0369794992671
ExecutionTime = 40.4 s  ClockTime = 40 s

Time = 543

smoothSolver:  Solving for Ux, Initial residual = 0.000103266098601, Final residual = 9.06006468616e-06, No Iterations 4
smoothSolver:  Solving for Uy, Initial residual = 0.000103108460151, Final residual = 9.28073803645e-06, No Iterations 4
smoothSolver:  Solving for Uz, Initial residual = 3.37271614741e-05, Final residual = 9.82724951827e-06, No Iterations 2
GAMG:  Solving for p, Initial residual = 4.69120380941e-05, Final residual = 2.28306388772e-06, No Iterations 5
time step continuity errors : sum local = 1.45294527476e-06, global = 1.43700580791e-08, cumulative = 0.0369795136372
ExecutionTime = 40.47 s  ClockTime = 40 s

Time = 544

smoothSolver:  Solving for Ux, Initial residual = 0.000103049163679, Final residual = 9.04114329407e-06, No Iterations 4
smoothSolver:  Solving for Uy, Initial residual = 0.000102948950377, Final residual = 9.26628239185e-06, No Iterations 4
smoothSolver:  Solving for Uz, Initial residual = 3.35879805623e-05, Final residual = 9.78677020118e-06, No Iterations 2
GAMG:  Solving for p, Initial residual = 4.37689694198e-05, Final residual = 1.22799075167e-06, No Iterations 7
time step continuity errors : sum local = 7.81321427728e-07, global = 4.90676596311e-09, cumulative = 0.0369795185439
ExecutionTime = 40.54 s  ClockTime = 40 s

Time = 545

smoothSolver:  Solving for Ux, Initial residual = 0.000102833843265, Final residual = 9.02238889939e-06, No Iterations 4
smoothSolver:  Solving for Uy, Initial residual = 0.000102732428073, Final residual = 9.24697811427e-06, No Iterations 4
smoothSolver:  Solving for Uz, Initial residual = 3.34512744884e-05, Final residual = 9.74704462492e-06, No Iterations 2
GAMG:  Solving for p, Initial residual = 3.91510909617e-05, Final residual = 1.1428394311e-06, No Iterations 7
time step continuity errors : sum local = 7.26973155046e-07, global = 4.63948880858e-09, cumulative = 0.0369795231834
ExecutionTime = 40.62 s  ClockTime = 40 s

Time = 546

smoothSolver:  Solving for Ux, Initial residual = 0.000102620114701, Final residual = 9.00377176554e-06, No Iterations 4
smoothSolver:  Solving for Uy, Initial residual = 0.000102389311268, Final residual = 9.21638810249e-06, No Iterations 4
smoothSolver:  Solving for Uz, Initial residual = 3.33174253469e-05, Final residual = 9.70816224553e-06, No Iterations 2
GAMG:  Solving for p, Initial residual = 3.56724291174e-05, Final residual = 1.09847774287e-06, No Iterations 7
time step continuity errors : sum local = 6.98595315455e-07, global = 4.09052083794e-09, cumulative = 0.036979527274
ExecutionTime = 40.71 s  ClockTime = 40 s

Time = 547

smoothSolver:  Solving for Ux, Initial residual = 0.000102408131563, Final residual = 8.98523992637e-06, No Iterations 4
smoothSolver:  Solving for Uy, Initial residual = 0.000101975242452, Final residual = 9.17943583192e-06, No Iterations 4
smoothSolver:  Solving for Uz, Initial residual = 3.31858825176e-05, Final residual = 9.66995391509e-06, No Iterations 2
GAMG:  Solving for p, Initial residual = 3.38206563708e-05, Final residual = 1.09794301729e-06, No Iterations 7
time step continuity errors : sum local = 6.98099857494e-07, global = 4.01542720877e-09, cumulative = 0.0369795312894
ExecutionTime = 40.78 s  ClockTime = 40 s

Time = 548

smoothSolver:  Solving for Ux, Initial residual = 0.000102198213329, Final residual = 8.96678541794e-06, No Iterations 4
smoothSolver:  Solving for Uy, Initial residual = 0.00010152764714, Final residual = 9.13945199455e-06, No Iterations 4
smoothSolver:  Solving for Uz, Initial residual = 3.30559712566e-05, Final residual = 9.63221243197e-06, No Iterations 2
GAMG:  Solving for p, Initial residual = 3.34733020934e-05, Final residual = 1.1761932407e-06, No Iterations 7
time step continuity errors : sum local = 7.47688624575e-07, global = 4.29885370467e-09, cumulative = 0.0369795355882
ExecutionTime = 40.85 s  ClockTime = 40 s

Time = 549

smoothSolver:  Solving for Ux, Initial residual = 0.000101989456551, Final residual = 8.94840551861e-06, No Iterations 4
smoothSolver:  Solving for Uy, Initial residual = 0.000101065355472, Final residual = 9.09815781811e-06, No Iterations 4
smoothSolver:  Solving for Uz, Initial residual = 3.29271904981e-05, Final residual = 9.59478865217e-06, No Iterations 2
GAMG:  Solving for p, Initial residual = 3.35993868623e-05, Final residual = 1.27547462657e-06, No Iterations 7
time step continuity errors : sum local = 8.10623013336e-07, global = 4.61229758222e-09, cumulative = 0.0369795402005
ExecutionTime = 40.92 s  ClockTime = 40 s

Time = 550

smoothSolver:  Solving for Ux, Initial residual = 0.000101781550588, Final residual = 8.93009121447e-06, No Iterations 4
smoothSolver:  Solving for Uy, Initial residual = 0.000100598506831, Final residual = 9.0564955095e-06, No Iterations 4
smoothSolver:  Solving for Uz, Initial residual = 3.27991683159e-05, Final residual = 9.55757816266e-06, No Iterations 2
GAMG:  Solving for p, Initial residual = 3.34608378492e-05, Final residual = 1.30782530921e-06, No Iterations 7
time step continuity errors : sum local = 8.31002482529e-07, global = 4.82687506487e-09, cumulative = 0.0369795450274
ExecutionTime = 40.99 s  ClockTime = 41 s

Time = 551

smoothSolver:  Solving for Ux, Initial residual = 0.000101574401548, Final residual = 8.91183842076e-06, No Iterations 4
smoothSolver:  Solving for Uy, Initial residual = 0.000100135008082, Final residual = 9.01521014097e-06, No Iterations 4
smoothSolver:  Solving for Uz, Initial residual = 3.26716290757e-05, Final residual = 9.52050894643e-06, No Iterations 2
GAMG:  Solving for p, Initial residual = 3.3092063941e-05, Final residual = 1.27648750198e-06, No Iterations 7
time step continuity errors : sum local = 8.10914437537e-07, global = 4.95279677122e-09, cumulative = 0.0369795499802
ExecutionTime = 41.06 s  ClockTime = 41 s

Time = 552

smoothSolver:  Solving for Ux, Initial residual = 0.000101367971643, Final residual = 8.89365173121e-06, No Iterations 4
smoothSolver:  Solving for Uy, Initial residual = 9.96807351153e-05, Final residual = 8.97483835322e-06, No Iterations 4
smoothSolver:  Solving for Uz, Initial residual = 3.2544395618e-05, Final residual = 9.48352736886e-06, No Iterations 2
GAMG:  Solving for p, Initial residual = 3.2653432618e-05, Final residual = 1.2059391425e-06, No Iterations 7
time step continuity errors : sum local = 7.65932041125e-07, global = 4.92334648301e-09, cumulative = 0.0369795549035
ExecutionTime = 41.13 s  ClockTime = 41 s

Time = 553

smoothSolver:  Solving for Ux, Initial residual = 0.000101162233409, Final residual = 8.87551852404e-06, No Iterations 4
smoothSolver:  Solving for Uy, Initial residual = 9.92386189309e-05, Final residual = 8.9356344309e-06, No Iterations 4
smoothSolver:  Solving for Uz, Initial residual = 3.24174021339e-05, Final residual = 9.44661840669e-06, No Iterations 2
GAMG:  Solving for p, Initial residual = 3.22609161867e-05, Final residual = 1.13709611168e-06, No Iterations 7
time step continuity errors : sum local = 7.22052879927e-07, global = 4.83632601149e-09, cumulative = 0.0369795597399
ExecutionTime = 41.2 s  ClockTime = 41 s

Time = 554

smoothSolver:  Solving for Ux, Initial residual = 0.000100957155433, Final residual = 8.85743843878e-06, No Iterations 4
smoothSolver:  Solving for Uy, Initial residual = 9.88081180769e-05, Final residual = 8.89752778081e-06, No Iterations 4
smoothSolver:  Solving for Uz, Initial residual = 3.22906802326e-05, Final residual = 9.40978769721e-06, No Iterations 2
GAMG:  Solving for p, Initial residual = 3.1951829335e-05, Final residual = 1.09169495382e-06, No Iterations 7
time step continuity errors : sum local = 6.93075935759e-07, global = 4.70681644366e-09, cumulative = 0.0369795644467
ExecutionTime = 41.28 s  ClockTime = 41 s

Time = 555

smoothSolver:  Solving for Ux, Initial residual = 0.000100752691511, Final residual = 8.83940806593e-06, No Iterations 4
smoothSolver:  Solving for Uy, Initial residual = 9.83863085861e-05, Final residual = 8.86023769361e-06, No Iterations 4
smoothSolver:  Solving for Uz, Initial residual = 3.21643261014e-05, Final residual = 9.3730673344e-06, No Iterations 2
GAMG:  Solving for p, Initial residual = 3.17047816752e-05, Final residual = 1.07197931474e-06, No Iterations 7
time step continuity errors : sum local = 6.80415761146e-07, global = 4.50498317305e-09, cumulative = 0.0369795689517
ExecutionTime = 41.37 s  ClockTime = 41 s

Time = 556

smoothSolver:  Solving for Ux, Initial residual = 0.000100548746588, Final residual = 8.82142250694e-06, No Iterations 4
smoothSolver:  Solving for Uy, Initial residual = 9.79692188334e-05, Final residual = 8.8234151493e-06, No Iterations 4
smoothSolver:  Solving for Uz, Initial residual = 3.20384794429e-05, Final residual = 9.3364920476e-06, No Iterations 2
GAMG:  Solving for p, Initial residual = 3.14995320139e-05, Final residual = 1.06755177701e-06, No Iterations 7
time step continuity errors : sum local = 6.7746379596e-07, global = 4.32125804812e-09, cumulative = 0.0369795732729
ExecutionTime = 41.45 s  ClockTime = 41 s

Time = 557

smoothSolver:  Solving for Ux, Initial residual = 0.00010034530486, Final residual = 8.80348490124e-06, No Iterations 4
smoothSolver:  Solving for Uy, Initial residual = 9.7553455841e-05, Final residual = 8.78673459183e-06, No Iterations 4
smoothSolver:  Solving for Uz, Initial residual = 3.19132466833e-05, Final residual = 9.30009285219e-06, No Iterations 2
GAMG:  Solving for p, Initial residual = 3.13231655825e-05, Final residual = 1.07362922087e-06, No Iterations 7
time step continuity errors : sum local = 6.81179222128e-07, global = 4.16471262576e-09, cumulative = 0.0369795774376
ExecutionTime = 41.52 s  ClockTime = 41 s

Time = 558

smoothSolver:  Solving for Ux, Initial residual = 0.000100142444968, Final residual = 8.78559162168e-06, No Iterations 4
smoothSolver:  Solving for Uy, Initial residual = 9.71372405152e-05, Final residual = 8.75000935226e-06, No Iterations 4
smoothSolver:  Solving for Uz, Initial residual = 3.17886867674e-05, Final residual = 9.26388822076e-06, No Iterations 2
GAMG:  Solving for p, Initial residual = 3.11677284393e-05, Final residual = 1.08298357304e-06, No Iterations 7
time step continuity errors : sum local = 6.86972836989e-07, global = 4.06958495531e-09, cumulative = 0.0369795815072
ExecutionTime = 41.59 s  ClockTime = 41 s

Time = 559

smoothSolver:  Solving for Ux, Initial residual = 9.99400599225e-05, Final residual = 8.76774521129e-06, No Iterations 4
smoothSolver:  Solving for Uy, Initial residual = 9.67200439279e-05, Final residual = 8.71320388058e-06, No Iterations 4
smoothSolver:  Solving for Uz, Initial residual = 3.16648296677e-05, Final residual = 9.22788797197e-06, No Iterations 2
GAMG:  Solving for p, Initial residual = 3.10219500263e-05, Final residual = 1.09152936204e-06, No Iterations 7
time step continuity errors : sum local = 6.92252335967e-07, global = 4.0417558492e-09, cumulative = 0.036979585549
ExecutionTime = 41.69 s  ClockTime = 41 s


SIMPLE solution converged in 559 iterations

    writing object shearStress
End

Finalising parallel run
