/*---------------------------------------------------------------------------*\
  =========                 |
  \\      /  F ield         | OpenFOAM: The Open Source CFD Toolbox
   \\    /   O peration     | Website:  https://openfoam.org
    \\  /    A nd           | Version:  9
     \\/     M anipulation  |
\*---------------------------------------------------------------------------*/
Build  : 9-b456138dc4bc
Exec   : simpleFoam -parallel
Date   : Jul 04 2022
Time   : 19:40:05
Host   : "KORIN-LAB"
PID    : 2492
I/O    : uncollated
Case   : /home/colin/OpenFOAM/colin-9/run/wsl/wedge_needle/concentration/2/90_needle_layer
nProcs : 6
Slaves : 
5
(
"KORIN-LAB.2493"
"KORIN-LAB.2494"
"KORIN-LAB.2495"
"KORIN-LAB.2496"
"KORIN-LAB.2497"
)

Pstream initialised with:
    floatTransfer      : 0
    nProcsSimpleSum    : 0
    commsType          : nonBlocking
    polling iterations : 0
sigFpe : Enabling floating point exception trapping (FOAM_SIGFPE).
fileModificationChecking : Monitoring run-time modified files using timeStampMaster (fileModificationSkew 10)
allowSystemOperations : Allowing user-supplied system call operations

// * * * * * * * * * * * * * * * * * * * * * * * * * * * * * * * * * * * * * //
Create time

Create mesh for time = 0


SIMPLE: Convergence criteria found
        p: tolerance 0.001
        U: tolerance 0.0001
        "(k|epsilon|omega|f|v2)": tolerance 0.0001

Reading field p

Reading field U

Reading/calculating face flux field phi

Selecting incompressible transport model powerLaw
Selecting turbulence model type laminar
Selecting laminar stress model Stokes
No MRF models present

No fvModels present
No fvConstraints present

Starting time loop

wallShearStress wallShearStress:
    processing all wall patches

Time = 1

smoothSolver:  Solving for Ux, Initial residual = 0.98897795015, Final residual = 0.0799140269003, No Iterations 2
smoothSolver:  Solving for Uy, Initial residual = 1, Final residual = 0.0572562251193, No Iterations 2
smoothSolver:  Solving for Uz, Initial residual = 1, Final residual = 0.0816529803376, No Iterations 2
GAMG:  Solving for p, Initial residual = 0.999999999986, Final residual = 0.0422122106667, No Iterations 32
time step continuity errors : sum local = 0.0219270110134, global = -0.000279621415672, cumulative = -0.000279621415672
ExecutionTime = 0.17 s  ClockTime = 1 s

Time = 2

smoothSolver:  Solving for Ux, Initial residual = 0.937455951062, Final residual = 0.0824272079154, No Iterations 3
smoothSolver:  Solving for Uy, Initial residual = 0.998352023248, Final residual = 0.0870776401541, No Iterations 4
smoothSolver:  Solving for Uz, Initial residual = 0.999806366372, Final residual = 0.084945667273, No Iterations 4
GAMG:  Solving for p, Initial residual = 0.00616869944609, Final residual = 0.000254131962596, No Iterations 11
time step continuity errors : sum local = 1208.89135012, global = 1.94443015734, cumulative = 1.94415053593
ExecutionTime = 0.26 s  ClockTime = 1 s

Time = 3

smoothSolver:  Solving for Ux, Initial residual = 0.726709369485, Final residual = 0.0409113834819, No Iterations 3
smoothSolver:  Solving for Uy, Initial residual = 0.156859782804, Final residual = 0.0131934853236, No Iterations 4
smoothSolver:  Solving for Uz, Initial residual = 0.115817580238, Final residual = 0.00929845737419, No Iterations 4
GAMG:  Solving for p, Initial residual = 0.0389699091638, Final residual = 0.00131433261032, No Iterations 16
time step continuity errors : sum local = 613.611525312, global = -30.7413990904, cumulative = -28.7972485545
ExecutionTime = 0.34 s  ClockTime = 1 s

Time = 4

smoothSolver:  Solving for Ux, Initial residual = 0.0736333661486, Final residual = 0.00428287183807, No Iterations 2
smoothSolver:  Solving for Uy, Initial residual = 0.108793065633, Final residual = 0.00899114256415, No Iterations 4
smoothSolver:  Solving for Uz, Initial residual = 0.0350655135502, Final residual = 0.00217332944737, No Iterations 4
GAMG:  Solving for p, Initial residual = 0.396049485755, Final residual = 0.0186306534485, No Iterations 9
time step continuity errors : sum local = 1350.68514225, global = 10.8345290147, cumulative = -17.9627195398
ExecutionTime = 0.43 s  ClockTime = 1 s

Time = 5

smoothSolver:  Solving for Ux, Initial residual = 0.0342016919854, Final residual = 0.00192697947331, No Iterations 2
smoothSolver:  Solving for Uy, Initial residual = 0.0397910207227, Final residual = 0.00248589941812, No Iterations 4
smoothSolver:  Solving for Uz, Initial residual = 0.0990055665533, Final residual = 0.00732908426153, No Iterations 4
GAMG:  Solving for p, Initial residual = 0.0490863719256, Final residual = 0.00167052680434, No Iterations 8
time step continuity errors : sum local = 479.992193527, global = 2.7944392826, cumulative = -15.1682802572
ExecutionTime = 0.5 s  ClockTime = 1 s

Time = 6

smoothSolver:  Solving for Ux, Initial residual = 0.0246203979889, Final residual = 0.00166199716092, No Iterations 2
smoothSolver:  Solving for Uy, Initial residual = 0.273682340079, Final residual = 0.0206626352527, No Iterations 4
smoothSolver:  Solving for Uz, Initial residual = 0.197526956452, Final residual = 0.0146649409851, No Iterations 4
GAMG:  Solving for p, Initial residual = 0.0297139771801, Final residual = 0.000642053523713, No Iterations 17
time step continuity errors : sum local = 182.390195029, global = -1.51094220837, cumulative = -16.6792224656
ExecutionTime = 0.58 s  ClockTime = 1 s

Time = 7

smoothSolver:  Solving for Ux, Initial residual = 0.0219719193443, Final residual = 0.00175735771922, No Iterations 2
smoothSolver:  Solving for Uy, Initial residual = 0.391314523104, Final residual = 0.0305517902597, No Iterations 4
smoothSolver:  Solving for Uz, Initial residual = 0.146665461034, Final residual = 0.0108973834641, No Iterations 4
GAMG:  Solving for p, Initial residual = 0.0602595191631, Final residual = 0.00237395492092, No Iterations 9
time step continuity errors : sum local = 452.535432171, global = 5.98725507258, cumulative = -10.691967393
ExecutionTime = 0.65 s  ClockTime = 1 s

Time = 8

smoothSolver:  Solving for Ux, Initial residual = 0.0170161597502, Final residual = 0.00153840610657, No Iterations 2
smoothSolver:  Solving for Uy, Initial residual = 0.119175550059, Final residual = 0.00944350148751, No Iterations 4
smoothSolver:  Solving for Uz, Initial residual = 0.0641283023198, Final residual = 0.00461790474594, No Iterations 4
GAMG:  Solving for p, Initial residual = 0.0930599421785, Final residual = 0.00300929907226, No Iterations 10
time step continuity errors : sum local = 321.655784676, global = 1.62689573997, cumulative = -9.06507165307
ExecutionTime = 0.72 s  ClockTime = 1 s

Time = 9

smoothSolver:  Solving for Ux, Initial residual = 0.0121298062978, Final residual = 0.00120671511322, No Iterations 2
smoothSolver:  Solving for Uy, Initial residual = 0.0446280638939, Final residual = 0.00322116079711, No Iterations 4
smoothSolver:  Solving for Uz, Initial residual = 0.0384060837359, Final residual = 0.00260627039375, No Iterations 4
GAMG:  Solving for p, Initial residual = 0.196731960416, Final residual = 0.00797596432159, No Iterations 9
time step continuity errors : sum local = 273.534258996, global = 0.420829681891, cumulative = -8.64424197118
ExecutionTime = 0.79 s  ClockTime = 1 s

Time = 10

smoothSolver:  Solving for Ux, Initial residual = 0.00827521017912, Final residual = 0.000395493956336, No Iterations 3
smoothSolver:  Solving for Uy, Initial residual = 0.155274147996, Final residual = 0.012133864271, No Iterations 4
smoothSolver:  Solving for Uz, Initial residual = 0.076800481286, Final residual = 0.00596321816458, No Iterations 4
GAMG:  Solving for p, Initial residual = 0.0599077781502, Final residual = 0.00177209652373, No Iterations 6
time step continuity errors : sum local = 117.371794844, global = 3.76638096262, cumulative = -4.87786100857
ExecutionTime = 0.86 s  ClockTime = 1 s

Time = 11

smoothSolver:  Solving for Ux, Initial residual = 0.00622924967828, Final residual = 0.000330606624122, No Iterations 3
smoothSolver:  Solving for Uy, Initial residual = 0.548513902846, Final residual = 0.0442893082522, No Iterations 4
smoothSolver:  Solving for Uz, Initial residual = 0.0939725649962, Final residual = 0.00746499167409, No Iterations 4
GAMG:  Solving for p, Initial residual = 0.0641914597695, Final residual = 0.00168885966772, No Iterations 12
time step continuity errors : sum local = 99.5230030215, global = 1.80585973492, cumulative = -3.07200127365
ExecutionTime = 0.92 s  ClockTime = 1 s

Time = 12

smoothSolver:  Solving for Ux, Initial residual = 0.00510102961286, Final residual = 0.000282614779777, No Iterations 3
smoothSolver:  Solving for Uy, Initial residual = 0.225601068663, Final residual = 0.0183034573055, No Iterations 4
smoothSolver:  Solving for Uz, Initial residual = 0.0655303017563, Final residual = 0.00521491540624, No Iterations 4
GAMG:  Solving for p, Initial residual = 0.119849276074, Final residual = 0.00534266924573, No Iterations 9
time step continuity errors : sum local = 175.268329246, global = -1.50320724104, cumulative = -4.57520851469
ExecutionTime = 0.99 s  ClockTime = 1 s

Time = 13

smoothSolver:  Solving for Ux, Initial residual = 0.00422604695301, Final residual = 0.00025607686879, No Iterations 3
smoothSolver:  Solving for Uy, Initial residual = 0.0842063024586, Final residual = 0.00661178327109, No Iterations 4
smoothSolver:  Solving for Uz, Initial residual = 0.0376427552237, Final residual = 0.00287703861858, No Iterations 4
GAMG:  Solving for p, Initial residual = 0.272864050909, Final residual = 0.00793402737049, No Iterations 9
time step continuity errors : sum local = 96.479890254, global = -0.963013192164, cumulative = -5.53822170686
ExecutionTime = 1.06 s  ClockTime = 1 s

Time = 14

smoothSolver:  Solving for Ux, Initial residual = 0.0037527814523, Final residual = 0.000252766595953, No Iterations 3
smoothSolver:  Solving for Uy, Initial residual = 0.0861097029776, Final residual = 0.00662481313416, No Iterations 4
smoothSolver:  Solving for Uz, Initial residual = 0.0283389349794, Final residual = 0.00206193594971, No Iterations 4
GAMG:  Solving for p, Initial residual = 0.117795524267, Final residual = 0.00297794270549, No Iterations 7
time step continuity errors : sum local = 64.8766798604, global = 0.177273257673, cumulative = -5.36094844918
ExecutionTime = 1.13 s  ClockTime = 2 s

Time = 15

smoothSolver:  Solving for Ux, Initial residual = 0.00355279027277, Final residual = 0.000259156117211, No Iterations 3
smoothSolver:  Solving for Uy, Initial residual = 0.221031200411, Final residual = 0.017642444197, No Iterations 4
smoothSolver:  Solving for Uz, Initial residual = 0.0278211057406, Final residual = 0.00201934608511, No Iterations 4
GAMG:  Solving for p, Initial residual = 0.0975769631605, Final residual = 0.00368621775617, No Iterations 6
time step continuity errors : sum local = 81.551079662, global = 0.737762035821, cumulative = -4.62318641336
ExecutionTime = 1.2 s  ClockTime = 2 s

Time = 16

smoothSolver:  Solving for Ux, Initial residual = 0.00343282272613, Final residual = 0.000254462714427, No Iterations 3
smoothSolver:  Solving for Uy, Initial residual = 0.205510380962, Final residual = 0.0163672150737, No Iterations 4
smoothSolver:  Solving for Uz, Initial residual = 0.0246141471096, Final residual = 0.00177217529792, No Iterations 4
GAMG:  Solving for p, Initial residual = 0.104333697205, Final residual = 0.00496830922562, No Iterations 8
time step continuity errors : sum local = 96.9363836583, global = 0.0904836644022, cumulative = -4.53270274896
ExecutionTime = 1.27 s  ClockTime = 2 s

Time = 17

smoothSolver:  Solving for Ux, Initial residual = 0.00328407940834, Final residual = 0.0002450593155, No Iterations 3
smoothSolver:  Solving for Uy, Initial residual = 0.10510992582, Final residual = 0.00822999164708, No Iterations 4
smoothSolver:  Solving for Uz, Initial residual = 0.0173295826821, Final residual = 0.00117546575453, No Iterations 4
GAMG:  Solving for p, Initial residual = 0.146082286369, Final residual = 0.00703449727329, No Iterations 8
time step continuity errors : sum local = 92.8856639137, global = -0.189092730878, cumulative = -4.72179547984
ExecutionTime = 1.34 s  ClockTime = 2 s

Time = 18

smoothSolver:  Solving for Ux, Initial residual = 0.00301256463888, Final residual = 0.000233237491205, No Iterations 3
smoothSolver:  Solving for Uy, Initial residual = 0.0679283689953, Final residual = 0.00525130997391, No Iterations 4
smoothSolver:  Solving for Uz, Initial residual = 0.0150802491465, Final residual = 0.00103329979952, No Iterations 4
GAMG:  Solving for p, Initial residual = 0.210029295239, Final residual = 0.00953886756363, No Iterations 6
time step continuity errors : sum local = 76.0277528453, global = -2.20790789586, cumulative = -6.92970337569
ExecutionTime = 1.41 s  ClockTime = 2 s

Time = 19

smoothSolver:  Solving for Ux, Initial residual = 0.00269721227078, Final residual = 0.000220171079801, No Iterations 3
smoothSolver:  Solving for Uy, Initial residual = 0.091560420999, Final residual = 0.00734907358954, No Iterations 4
smoothSolver:  Solving for Uz, Initial residual = 0.0174768724975, Final residual = 0.00128395091321, No Iterations 4
GAMG:  Solving for p, Initial residual = 0.235046601833, Final residual = 0.00871069044622, No Iterations 5
time step continuity errors : sum local = 50.4759365583, global = 0.327419434068, cumulative = -6.60228394163
ExecutionTime = 1.47 s  ClockTime = 2 s

Time = 20

smoothSolver:  Solving for Ux, Initial residual = 0.00244456008953, Final residual = 0.00020858585828, No Iterations 3
smoothSolver:  Solving for Uy, Initial residual = 0.169439693018, Final residual = 0.0139784663987, No Iterations 4
smoothSolver:  Solving for Uz, Initial residual = 0.0178820065031, Final residual = 0.00133944170218, No Iterations 4
GAMG:  Solving for p, Initial residual = 0.198650886158, Final residual = 0.00757331083863, No Iterations 5
time step continuity errors : sum local = 44.988902679, global = 0.529131174503, cumulative = -6.07315276712
ExecutionTime = 1.54 s  ClockTime = 2 s

Time = 21

smoothSolver:  Solving for Ux, Initial residual = 0.00228594105448, Final residual = 0.000200342223744, No Iterations 3
smoothSolver:  Solving for Uy, Initial residual = 0.150891094216, Final residual = 0.01239519197, No Iterations 4
smoothSolver:  Solving for Uz, Initial residual = 0.0174026485458, Final residual = 0.00131056513027, No Iterations 4
GAMG:  Solving for p, Initial residual = 0.179936479918, Final residual = 0.00631968925252, No Iterations 5
time step continuity errors : sum local = 35.906035986, global = 0.0761033812197, cumulative = -5.9970493859
ExecutionTime = 1.61 s  ClockTime = 2 s

Time = 22

smoothSolver:  Solving for Ux, Initial residual = 0.00216486154731, Final residual = 0.000195526108129, No Iterations 3
smoothSolver:  Solving for Uy, Initial residual = 0.110025513116, Final residual = 0.00890912787192, No Iterations 4
smoothSolver:  Solving for Uz, Initial residual = 0.0162134810096, Final residual = 0.00121574461768, No Iterations 4
GAMG:  Solving for p, Initial residual = 0.175742901427, Final residual = 0.0065743033748, No Iterations 6
time step continuity errors : sum local = 33.3909523949, global = 1.06001923968, cumulative = -4.93703014622
ExecutionTime = 1.67 s  ClockTime = 2 s

Time = 23

smoothSolver:  Solving for Ux, Initial residual = 0.0020669019899, Final residual = 0.000189535770214, No Iterations 3
smoothSolver:  Solving for Uy, Initial residual = 0.0889933507122, Final residual = 0.00721337544146, No Iterations 4
smoothSolver:  Solving for Uz, Initial residual = 0.0134811412229, Final residual = 0.000975504602908, No Iterations 4
GAMG:  Solving for p, Initial residual = 0.1505149119, Final residual = 0.00607399668755, No Iterations 5
time step continuity errors : sum local = 34.0355223977, global = 0.117203769095, cumulative = -4.81982637713
ExecutionTime = 1.74 s  ClockTime = 2 s

Time = 24

smoothSolver:  Solving for Ux, Initial residual = 0.00197741574994, Final residual = 0.000185377293956, No Iterations 3
smoothSolver:  Solving for Uy, Initial residual = 0.0717017299085, Final residual = 0.00561637478813, No Iterations 4
smoothSolver:  Solving for Uz, Initial residual = 0.0121456451514, Final residual = 0.000864914997731, No Iterations 4
GAMG:  Solving for p, Initial residual = 0.140310302896, Final residual = 0.00644781194975, No Iterations 5
time step continuity errors : sum local = 34.8680603869, global = 0.216903265768, cumulative = -4.60292311136
ExecutionTime = 1.8 s  ClockTime = 2 s

Time = 25

smoothSolver:  Solving for Ux, Initial residual = 0.0019251072216, Final residual = 0.000181633229429, No Iterations 3
smoothSolver:  Solving for Uy, Initial residual = 0.0683487954697, Final residual = 0.00540902242634, No Iterations 4
smoothSolver:  Solving for Uz, Initial residual = 0.0107705526916, Final residual = 0.000747338365379, No Iterations 4
GAMG:  Solving for p, Initial residual = 0.144868084376, Final residual = 0.00292750421295, No Iterations 7
time step continuity errors : sum local = 15.0274344379, global = 0.104195551098, cumulative = -4.49872756026
ExecutionTime = 1.87 s  ClockTime = 2 s

Time = 26

smoothSolver:  Solving for Ux, Initial residual = 0.00187615374639, Final residual = 0.000177518672308, No Iterations 3
smoothSolver:  Solving for Uy, Initial residual = 0.0564249300396, Final residual = 0.0043764200713, No Iterations 4
smoothSolver:  Solving for Uz, Initial residual = 0.00956024731864, Final residual = 0.000644857040336, No Iterations 4
GAMG:  Solving for p, Initial residual = 0.15295615158, Final residual = 0.00521669955605, No Iterations 5
time step continuity errors : sum local = 24.934909622, global = 0.164859111828, cumulative = -4.33386844843
ExecutionTime = 1.93 s  ClockTime = 2 s

Time = 27

smoothSolver:  Solving for Ux, Initial residual = 0.00183793812318, Final residual = 0.00017375332747, No Iterations 3
smoothSolver:  Solving for Uy, Initial residual = 0.0497467756446, Final residual = 0.00379664733, No Iterations 4
smoothSolver:  Solving for Uz, Initial residual = 0.00876314374489, Final residual = 0.000582270421128, No Iterations 4
GAMG:  Solving for p, Initial residual = 0.154482723408, Final residual = 0.00592843710408, No Iterations 5
time step continuity errors : sum local = 26.4356244038, global = 0.051061385996, cumulative = -4.28280706244
ExecutionTime = 2 s  ClockTime = 2 s

Time = 28

smoothSolver:  Solving for Ux, Initial residual = 0.00180701237002, Final residual = 0.000171106801264, No Iterations 3
smoothSolver:  Solving for Uy, Initial residual = 0.0483695348589, Final residual = 0.00379199440623, No Iterations 4
smoothSolver:  Solving for Uz, Initial residual = 0.00899317999105, Final residual = 0.00061907436415, No Iterations 4
GAMG:  Solving for p, Initial residual = 0.160628721866, Final residual = 0.00719892918138, No Iterations 4
time step continuity errors : sum local = 28.1858864789, global = -0.214024507291, cumulative = -4.49683156973
ExecutionTime = 2.06 s  ClockTime = 2 s

Time = 29

smoothSolver:  Solving for Ux, Initial residual = 0.00177839453279, Final residual = 0.00016878945975, No Iterations 3
smoothSolver:  Solving for Uy, Initial residual = 0.0541141908133, Final residual = 0.00435300403491, No Iterations 4
smoothSolver:  Solving for Uz, Initial residual = 0.00937706423274, Final residual = 0.000664666220126, No Iterations 4
GAMG:  Solving for p, Initial residual = 0.158263445663, Final residual = 0.0056591066863, No Iterations 6
time step continuity errors : sum local = 19.6883537831, global = -0.506927901555, cumulative = -5.00375947128
ExecutionTime = 2.12 s  ClockTime = 3 s

Time = 30

smoothSolver:  Solving for Ux, Initial residual = 0.00175177305176, Final residual = 0.000167250863815, No Iterations 3
smoothSolver:  Solving for Uy, Initial residual = 0.0611937933628, Final residual = 0.00499583741437, No Iterations 4
smoothSolver:  Solving for Uz, Initial residual = 0.00990985918662, Final residual = 0.00072243314229, No Iterations 4
GAMG:  Solving for p, Initial residual = 0.177592925193, Final residual = 0.00394003180513, No Iterations 5
time step continuity errors : sum local = 10.5219606538, global = -0.283740891806, cumulative = -5.28750036309
ExecutionTime = 2.19 s  ClockTime = 3 s

Time = 31

smoothSolver:  Solving for Ux, Initial residual = 0.00172155118458, Final residual = 0.000165618203817, No Iterations 3
smoothSolver:  Solving for Uy, Initial residual = 0.056672395638, Final residual = 0.00457700655879, No Iterations 4
smoothSolver:  Solving for Uz, Initial residual = 0.0098347917608, Final residual = 0.000724867351241, No Iterations 4
GAMG:  Solving for p, Initial residual = 0.154434939454, Final residual = 0.00754082685911, No Iterations 4
time step continuity errors : sum local = 19.7283800355, global = -0.55403739996, cumulative = -5.84153776305
ExecutionTime = 2.26 s  ClockTime = 3 s

Time = 32

smoothSolver:  Solving for Ux, Initial residual = 0.00169500052784, Final residual = 0.0001643331477, No Iterations 3
smoothSolver:  Solving for Uy, Initial residual = 0.0516162902353, Final residual = 0.00415175816289, No Iterations 4
smoothSolver:  Solving for Uz, Initial residual = 0.00947790223632, Final residual = 0.000700323981903, No Iterations 4
GAMG:  Solving for p, Initial residual = 0.152489594972, Final residual = 0.00747482937637, No Iterations 6
time step continuity errors : sum local = 18.1719089791, global = -0.334838530055, cumulative = -6.1763762931
ExecutionTime = 2.32 s  ClockTime = 3 s

Time = 33

smoothSolver:  Solving for Ux, Initial residual = 0.00167216395352, Final residual = 0.000163538906255, No Iterations 3
smoothSolver:  Solving for Uy, Initial residual = 0.0455764785705, Final residual = 0.00365918417576, No Iterations 4
smoothSolver:  Solving for Uz, Initial residual = 0.00889810270566, Final residual = 0.000653964994807, No Iterations 4
GAMG:  Solving for p, Initial residual = 0.160936085822, Final residual = 0.00771306630244, No Iterations 6
time step continuity errors : sum local = 16.9082929214, global = -0.302031794309, cumulative = -6.47840808741
ExecutionTime = 2.39 s  ClockTime = 3 s

Time = 34

smoothSolver:  Solving for Ux, Initial residual = 0.00165160498533, Final residual = 0.000162716142858, No Iterations 3
smoothSolver:  Solving for Uy, Initial residual = 0.038206172539, Final residual = 0.00300959947263, No Iterations 4
smoothSolver:  Solving for Uz, Initial residual = 0.00826299025715, Final residual = 0.000601656733742, No Iterations 4
GAMG:  Solving for p, Initial residual = 0.179528874768, Final residual = 0.00789178163056, No Iterations 6
time step continuity errors : sum local = 15.3644887976, global = -0.279476213713, cumulative = -6.75788430112
ExecutionTime = 2.46 s  ClockTime = 3 s

Time = 35

smoothSolver:  Solving for Ux, Initial residual = 0.00163393092752, Final residual = 0.000162512968541, No Iterations 3
smoothSolver:  Solving for Uy, Initial residual = 0.0335087475016, Final residual = 0.00260318094828, No Iterations 4
smoothSolver:  Solving for Uz, Initial residual = 0.00766610421907, Final residual = 0.000551892383146, No Iterations 4
GAMG:  Solving for p, Initial residual = 0.202214109276, Final residual = 0.00454514603528, No Iterations 7
time step continuity errors : sum local = 7.80298255116, global = -0.161136308281, cumulative = -6.91902060941
ExecutionTime = 2.53 s  ClockTime = 3 s

Time = 36

smoothSolver:  Solving for Ux, Initial residual = 0.0016204889681, Final residual = 8.14792856688e-05, No Iterations 4
smoothSolver:  Solving for Uy, Initial residual = 0.0312251574936, Final residual = 0.00239853601007, No Iterations 4
smoothSolver:  Solving for Uz, Initial residual = 0.00727563030759, Final residual = 0.000521010843069, No Iterations 4
GAMG:  Solving for p, Initial residual = 0.226836080241, Final residual = 0.0112470755552, No Iterations 4
time step continuity errors : sum local = 16.3572868232, global = -0.540104973633, cumulative = -7.45912558304
ExecutionTime = 2.59 s  ClockTime = 3 s

Time = 37

smoothSolver:  Solving for Ux, Initial residual = 0.0016028942756, Final residual = 8.13694690739e-05, No Iterations 4
smoothSolver:  Solving for Uy, Initial residual = 0.0290854043962, Final residual = 0.00223230018903, No Iterations 4
smoothSolver:  Solving for Uz, Initial residual = 0.00704234956545, Final residual = 0.000506402807126, No Iterations 4
GAMG:  Solving for p, Initial residual = 0.226829017039, Final residual = 0.00710960179958, No Iterations 5
time step continuity errors : sum local = 9.42625918606, global = -0.245720995466, cumulative = -7.7048465785
ExecutionTime = 2.66 s  ClockTime = 3 s

Time = 38

smoothSolver:  Solving for Ux, Initial residual = 0.00158557120353, Final residual = 8.1379949235e-05, No Iterations 4
smoothSolver:  Solving for Uy, Initial residual = 0.0283843088019, Final residual = 0.00223751228481, No Iterations 4
smoothSolver:  Solving for Uz, Initial residual = 0.00717400993046, Final residual = 0.000528344668627, No Iterations 4
GAMG:  Solving for p, Initial residual = 0.214307838451, Final residual = 0.00539955538457, No Iterations 4
time step continuity errors : sum local = 6.69607814228, global = -0.125213419719, cumulative = -7.83005999822
ExecutionTime = 2.72 s  ClockTime = 3 s

Time = 39

smoothSolver:  Solving for Ux, Initial residual = 0.00156805114978, Final residual = 8.13589073405e-05, No Iterations 4
smoothSolver:  Solving for Uy, Initial residual = 0.0295404402822, Final residual = 0.00238225578204, No Iterations 4
smoothSolver:  Solving for Uz, Initial residual = 0.00728675409432, Final residual = 0.000545088357915, No Iterations 4
GAMG:  Solving for p, Initial residual = 0.174105229804, Final residual = 0.00353733584048, No Iterations 5
time step continuity errors : sum local = 4.70611445599, global = 0.026287166813, cumulative = -7.80377283141
ExecutionTime = 2.78 s  ClockTime = 3 s

Time = 40

smoothSolver:  Solving for Ux, Initial residual = 0.00155350805308, Final residual = 8.14895487684e-05, No Iterations 4
smoothSolver:  Solving for Uy, Initial residual = 0.0294120480065, Final residual = 0.00238417443355, No Iterations 4
smoothSolver:  Solving for Uz, Initial residual = 0.00728154341826, Final residual = 0.00055012828054, No Iterations 4
GAMG:  Solving for p, Initial residual = 0.142715713428, Final residual = 0.00251668530589, No Iterations 5
time step continuity errors : sum local = 3.58470539902, global = -0.170340392057, cumulative = -7.97411322347
ExecutionTime = 2.85 s  ClockTime = 3 s

Time = 41

smoothSolver:  Solving for Ux, Initial residual = 0.00154006267578, Final residual = 8.17589353162e-05, No Iterations 4
smoothSolver:  Solving for Uy, Initial residual = 0.0282085336497, Final residual = 0.00229786587946, No Iterations 4
smoothSolver:  Solving for Uz, Initial residual = 0.00715114951361, Final residual = 0.000543258710751, No Iterations 4
GAMG:  Solving for p, Initial residual = 0.123182852336, Final residual = 0.00259061760683, No Iterations 5
time step continuity errors : sum local = 3.82076477046, global = -0.119530854262, cumulative = -8.09364407773
ExecutionTime = 2.91 s  ClockTime = 3 s

Time = 42

smoothSolver:  Solving for Ux, Initial residual = 0.00152696621712, Final residual = 8.21066835852e-05, No Iterations 4
smoothSolver:  Solving for Uy, Initial residual = 0.0252692588955, Final residual = 0.00204894471415, No Iterations 4
smoothSolver:  Solving for Uz, Initial residual = 0.00694287202466, Final residual = 0.000528666407185, No Iterations 4
GAMG:  Solving for p, Initial residual = 0.112917114172, Final residual = 0.00559741162954, No Iterations 4
time step continuity errors : sum local = 8.30669421858, global = -0.340134036153, cumulative = -8.43377811388
ExecutionTime = 2.98 s  ClockTime = 3 s

Time = 43

smoothSolver:  Solving for Ux, Initial residual = 0.00151634643112, Final residual = 8.25544754894e-05, No Iterations 4
smoothSolver:  Solving for Uy, Initial residual = 0.0225405551071, Final residual = 0.00181162540806, No Iterations 4
smoothSolver:  Solving for Uz, Initial residual = 0.00667779840088, Final residual = 0.000508283693062, No Iterations 4
GAMG:  Solving for p, Initial residual = 0.112040024097, Final residual = 0.00211009446382, No Iterations 7
time step continuity errors : sum local = 3.01479357199, global = -0.106873347053, cumulative = -8.54065146094
ExecutionTime = 3.05 s  ClockTime = 3 s

Time = 44

smoothSolver:  Solving for Ux, Initial residual = 0.00150424151942, Final residual = 8.28564745677e-05, No Iterations 4
smoothSolver:  Solving for Uy, Initial residual = 0.0209939207498, Final residual = 0.0016911127411, No Iterations 4
smoothSolver:  Solving for Uz, Initial residual = 0.00645291093115, Final residual = 0.000490928308015, No Iterations 4
GAMG:  Solving for p, Initial residual = 0.108668243931, Final residual = 0.00539973937269, No Iterations 5
time step continuity errors : sum local = 7.69569551714, global = 0.127306986445, cumulative = -8.41334447449
ExecutionTime = 3.12 s  ClockTime = 4 s

Time = 45

smoothSolver:  Solving for Ux, Initial residual = 0.0014921668398, Final residual = 8.31482093555e-05, No Iterations 4
smoothSolver:  Solving for Uy, Initial residual = 0.018258621013, Final residual = 0.00143957034395, No Iterations 4
smoothSolver:  Solving for Uz, Initial residual = 0.00623745407227, Final residual = 0.000474725531734, No Iterations 4
GAMG:  Solving for p, Initial residual = 0.107423731942, Final residual = 0.00218336543566, No Iterations 6
time step continuity errors : sum local = 3.00033278256, global = -0.00108902358601, cumulative = -8.41443349808
ExecutionTime = 3.18 s  ClockTime = 4 s

Time = 46

smoothSolver:  Solving for Ux, Initial residual = 0.00147647795801, Final residual = 8.33162346649e-05, No Iterations 4
smoothSolver:  Solving for Uy, Initial residual = 0.0163891122652, Final residual = 0.00128477022419, No Iterations 4
smoothSolver:  Solving for Uz, Initial residual = 0.00614479696441, Final residual = 0.000469999756525, No Iterations 4
GAMG:  Solving for p, Initial residual = 0.100288133573, Final residual = 0.00467087115026, No Iterations 4
time step continuity errors : sum local = 6.4385730999, global = -0.255870832593, cumulative = -8.67030433067
ExecutionTime = 3.25 s  ClockTime = 4 s

Time = 47

smoothSolver:  Solving for Ux, Initial residual = 0.00146146548617, Final residual = 8.3439793907e-05, No Iterations 4
smoothSolver:  Solving for Uy, Initial residual = 0.0161725391467, Final residual = 0.00127513128887, No Iterations 4
smoothSolver:  Solving for Uz, Initial residual = 0.0061204725261, Final residual = 0.000472162857595, No Iterations 4
GAMG:  Solving for p, Initial residual = 0.0930248014017, Final residual = 0.00414219403758, No Iterations 4
time step continuity errors : sum local = 5.59579797818, global = -0.240086475895, cumulative = -8.91039080656
ExecutionTime = 3.32 s  ClockTime = 4 s

Time = 48

smoothSolver:  Solving for Ux, Initial residual = 0.00144351545675, Final residual = 8.3269401236e-05, No Iterations 4
smoothSolver:  Solving for Uy, Initial residual = 0.0160561894534, Final residual = 0.00129384702858, No Iterations 4
smoothSolver:  Solving for Uz, Initial residual = 0.00614331344393, Final residual = 0.000479665812549, No Iterations 4
GAMG:  Solving for p, Initial residual = 0.082984282902, Final residual = 0.00251059543426, No Iterations 4
time step continuity errors : sum local = 3.37598621241, global = -0.0214520486482, cumulative = -8.93184285521
ExecutionTime = 3.39 s  ClockTime = 4 s

Time = 49

smoothSolver:  Solving for Ux, Initial residual = 0.00142855718674, Final residual = 8.34008958756e-05, No Iterations 4
smoothSolver:  Solving for Uy, Initial residual = 0.0159555668349, Final residual = 0.00130231029555, No Iterations 4
smoothSolver:  Solving for Uz, Initial residual = 0.00619107359318, Final residual = 0.000487505159805, No Iterations 4
GAMG:  Solving for p, Initial residual = 0.0696939923793, Final residual = 0.00261301088365, No Iterations 4
time step continuity errors : sum local = 3.66494274235, global = -0.317902019634, cumulative = -9.24974487485
ExecutionTime = 3.46 s  ClockTime = 4 s

Time = 50

smoothSolver:  Solving for Ux, Initial residual = 0.00141242952933, Final residual = 8.34473637935e-05, No Iterations 4
smoothSolver:  Solving for Uy, Initial residual = 0.0160524917885, Final residual = 0.00131949499746, No Iterations 4
smoothSolver:  Solving for Uz, Initial residual = 0.00615224640477, Final residual = 0.000487311727709, No Iterations 4
GAMG:  Solving for p, Initial residual = 0.0605979817544, Final residual = 0.00178192520473, No Iterations 4
time step continuity errors : sum local = 2.54617405566, global = 0.00458119225337, cumulative = -9.24516368259
ExecutionTime = 3.52 s  ClockTime = 4 s

Time = 51

smoothSolver:  Solving for Ux, Initial residual = 0.00140199922018, Final residual = 8.34533644375e-05, No Iterations 4
smoothSolver:  Solving for Uy, Initial residual = 0.0152964830521, Final residual = 0.0012595388985, No Iterations 4
smoothSolver:  Solving for Uz, Initial residual = 0.00609728045647, Final residual = 0.000485033931873, No Iterations 4
GAMG:  Solving for p, Initial residual = 0.0472311995441, Final residual = 0.00134725368395, No Iterations 5
time step continuity errors : sum local = 2.24286969002, global = 0.116188734766, cumulative = -9.12897494783
ExecutionTime = 3.6 s  ClockTime = 4 s

Time = 52

smoothSolver:  Solving for Ux, Initial residual = 0.00138646587015, Final residual = 8.35207690167e-05, No Iterations 4
smoothSolver:  Solving for Uy, Initial residual = 0.0145798207552, Final residual = 0.00120120277237, No Iterations 4
smoothSolver:  Solving for Uz, Initial residual = 0.00600043446758, Final residual = 0.000478603622827, No Iterations 4
GAMG:  Solving for p, Initial residual = 0.0430283333151, Final residual = 0.00179271117826, No Iterations 4
time step continuity errors : sum local = 3.03115533065, global = -0.120109224109, cumulative = -9.24908417194
ExecutionTime = 3.67 s  ClockTime = 4 s

Time = 53

smoothSolver:  Solving for Ux, Initial residual = 0.00136977265912, Final residual = 8.35462160546e-05, No Iterations 4
smoothSolver:  Solving for Uy, Initial residual = 0.0131302829246, Final residual = 0.0010647698819, No Iterations 4
smoothSolver:  Solving for Uz, Initial residual = 0.00587623108413, Final residual = 0.000469352973157, No Iterations 4
GAMG:  Solving for p, Initial residual = 0.0407704128548, Final residual = 0.000952284084846, No Iterations 6
time step continuity errors : sum local = 1.59695841306, global = 0.00483827537977, cumulative = -9.24424589656
ExecutionTime = 3.74 s  ClockTime = 4 s

Time = 54

smoothSolver:  Solving for Ux, Initial residual = 0.00135748173236, Final residual = 8.3703662897e-05, No Iterations 4
smoothSolver:  Solving for Uy, Initial residual = 0.012082867717, Final residual = 0.000971716504967, No Iterations 4
smoothSolver:  Solving for Uz, Initial residual = 0.00577179323609, Final residual = 0.000461546500113, No Iterations 4
GAMG:  Solving for p, Initial residual = 0.0391473130919, Final residual = 0.00192348807709, No Iterations 5
time step continuity errors : sum local = 3.24123130239, global = 0.0446622196437, cumulative = -9.19958367691
ExecutionTime = 3.8 s  ClockTime = 4 s

Time = 55

smoothSolver:  Solving for Ux, Initial residual = 0.00134639806069, Final residual = 8.38930840006e-05, No Iterations 4
smoothSolver:  Solving for Uy, Initial residual = 0.0107496862796, Final residual = 0.000839980937868, No Iterations 4
smoothSolver:  Solving for Uz, Initial residual = 0.00567729326345, Final residual = 0.000454832864289, No Iterations 4
GAMG:  Solving for p, Initial residual = 0.037888689379, Final residual = 0.00111104076023, No Iterations 6
time step continuity errors : sum local = 1.85659386405, global = -0.0416880836166, cumulative = -9.24127176053
ExecutionTime = 3.87 s  ClockTime = 4 s

Time = 56

smoothSolver:  Solving for Ux, Initial residual = 0.00133693626409, Final residual = 8.41139866083e-05, No Iterations 4
smoothSolver:  Solving for Uy, Initial residual = 0.0099883256428, Final residual = 0.000776409375203, No Iterations 4
smoothSolver:  Solving for Uz, Initial residual = 0.00561783901456, Final residual = 0.000451336459603, No Iterations 4
GAMG:  Solving for p, Initial residual = 0.0360354847194, Final residual = 0.00087131172516, No Iterations 6
time step continuity errors : sum local = 1.45083192967, global = -0.0288978810097, cumulative = -9.27016964154
ExecutionTime = 3.94 s  ClockTime = 4 s

Time = 57

smoothSolver:  Solving for Ux, Initial residual = 0.00133442793236, Final residual = 8.44856844005e-05, No Iterations 4
smoothSolver:  Solving for Uy, Initial residual = 0.00983851822588, Final residual = 0.000776840502437, No Iterations 4
smoothSolver:  Solving for Uz, Initial residual = 0.00561624319832, Final residual = 0.000454144442156, No Iterations 4
GAMG:  Solving for p, Initial residual = 0.0330986263087, Final residual = 0.00128471071766, No Iterations 4
time step continuity errors : sum local = 2.14093876751, global = -0.0499954974034, cumulative = -9.32016513894
ExecutionTime = 4.01 s  ClockTime = 4 s

Time = 58

smoothSolver:  Solving for Ux, Initial residual = 0.00132409537444, Final residual = 8.49043721085e-05, No Iterations 4
smoothSolver:  Solving for Uy, Initial residual = 0.00996635837298, Final residual = 0.000808227611889, No Iterations 4
smoothSolver:  Solving for Uz, Initial residual = 0.00563526775347, Final residual = 0.000458773321698, No Iterations 4
GAMG:  Solving for p, Initial residual = 0.0295379025659, Final residual = 0.00103414042183, No Iterations 4
time step continuity errors : sum local = 1.72873804001, global = -0.0174752640918, cumulative = -9.33764040303
ExecutionTime = 4.08 s  ClockTime = 4 s

Time = 59

smoothSolver:  Solving for Ux, Initial residual = 0.00131391660763, Final residual = 8.52103041087e-05, No Iterations 4
smoothSolver:  Solving for Uy, Initial residual = 0.00983206881325, Final residual = 0.000803062931532, No Iterations 4
smoothSolver:  Solving for Uz, Initial residual = 0.00563675468567, Final residual = 0.000460655934926, No Iterations 4
GAMG:  Solving for p, Initial residual = 0.0258547035834, Final residual = 0.000968410865266, No Iterations 4
time step continuity errors : sum local = 1.62885084502, global = -0.00982831694674, cumulative = -9.34746871998
ExecutionTime = 4.15 s  ClockTime = 5 s

Time = 60

smoothSolver:  Solving for Ux, Initial residual = 0.0013042146135, Final residual = 8.52839847046e-05, No Iterations 4
smoothSolver:  Solving for Uy, Initial residual = 0.00963461751996, Final residual = 0.000786007043658, No Iterations 4
smoothSolver:  Solving for Uz, Initial residual = 0.00560458341336, Final residual = 0.000459282317025, No Iterations 4
GAMG:  Solving for p, Initial residual = 0.0228081657451, Final residual = 0.000775847921528, No Iterations 4
time step continuity errors : sum local = 1.31361007597, global = -0.0250822278597, cumulative = -9.37255094784
ExecutionTime = 4.22 s  ClockTime = 5 s

Time = 61

smoothSolver:  Solving for Ux, Initial residual = 0.0012957772542, Final residual = 8.52639326193e-05, No Iterations 4
smoothSolver:  Solving for Uy, Initial residual = 0.00893773106186, Final residual = 0.000725745386123, No Iterations 4
smoothSolver:  Solving for Uz, Initial residual = 0.00555173011093, Final residual = 0.000456041223122, No Iterations 4
GAMG:  Solving for p, Initial residual = 0.020851940982, Final residual = 0.000761600129085, No Iterations 4
time step continuity errors : sum local = 1.29484900784, global = -0.0480489766137, cumulative = -9.42059992445
ExecutionTime = 4.28 s  ClockTime = 5 s

Time = 62

smoothSolver:  Solving for Ux, Initial residual = 0.00129406546593, Final residual = 8.57219838954e-05, No Iterations 4
smoothSolver:  Solving for Uy, Initial residual = 0.00815935325483, Final residual = 0.000658006724864, No Iterations 4
smoothSolver:  Solving for Uz, Initial residual = 0.00551457112871, Final residual = 0.000453962482787, No Iterations 4
GAMG:  Solving for p, Initial residual = 0.0198572063647, Final residual = 0.000430721323893, No Iterations 6
time step continuity errors : sum local = 0.734057978495, global = -0.0168347142886, cumulative = -9.43743463874
ExecutionTime = 4.35 s  ClockTime = 5 s

Time = 63

smoothSolver:  Solving for Ux, Initial residual = 0.00128719355958, Final residual = 8.60422260027e-05, No Iterations 4
smoothSolver:  Solving for Uy, Initial residual = 0.00760817524234, Final residual = 0.000612102697184, No Iterations 4
smoothSolver:  Solving for Uz, Initial residual = 0.00547339105111, Final residual = 0.000451459291141, No Iterations 4
GAMG:  Solving for p, Initial residual = 0.0191330377437, Final residual = 0.000521688629848, No Iterations 6
time step continuity errors : sum local = 0.892387289934, global = -0.0166914092806, cumulative = -9.45412604802
ExecutionTime = 4.42 s  ClockTime = 5 s

Time = 64

smoothSolver:  Solving for Ux, Initial residual = 0.00127943637144, Final residual = 8.62420757626e-05, No Iterations 4
smoothSolver:  Solving for Uy, Initial residual = 0.00686811430887, Final residual = 0.000548004536832, No Iterations 4
smoothSolver:  Solving for Uz, Initial residual = 0.00543864674868, Final residual = 0.000449521615164, No Iterations 4
GAMG:  Solving for p, Initial residual = 0.018064957041, Final residual = 0.000665904410356, No Iterations 6
time step continuity errors : sum local = 1.14178884798, global = -0.016182501295, cumulative = -9.47030854932
ExecutionTime = 4.49 s  ClockTime = 5 s

Time = 65

smoothSolver:  Solving for Ux, Initial residual = 0.0012712701701, Final residual = 8.6349342153e-05, No Iterations 4
smoothSolver:  Solving for Uy, Initial residual = 0.00640042796361, Final residual = 0.00050826593043, No Iterations 4
smoothSolver:  Solving for Uz, Initial residual = 0.00541729933721, Final residual = 0.000448787148585, No Iterations 4
GAMG:  Solving for p, Initial residual = 0.0168148795901, Final residual = 0.000523296196506, No Iterations 5
time step continuity errors : sum local = 0.898251341846, global = -0.000647780894727, cumulative = -9.47095633021
ExecutionTime = 4.56 s  ClockTime = 5 s

Time = 66

smoothSolver:  Solving for Ux, Initial residual = 0.0012637676019, Final residual = 8.64325086151e-05, No Iterations 4
smoothSolver:  Solving for Uy, Initial residual = 0.00631237534132, Final residual = 0.000504036959241, No Iterations 4
smoothSolver:  Solving for Uz, Initial residual = 0.00540615389693, Final residual = 0.000449033658682, No Iterations 4
GAMG:  Solving for p, Initial residual = 0.0152840346634, Final residual = 0.000585675013381, No Iterations 4
time step continuity errors : sum local = 1.00225884189, global = 0.00198024183575, cumulative = -9.46897608838
ExecutionTime = 4.62 s  ClockTime = 5 s

Time = 67

smoothSolver:  Solving for Ux, Initial residual = 0.00125658712916, Final residual = 8.65023155268e-05, No Iterations 4
smoothSolver:  Solving for Uy, Initial residual = 0.0062280936156, Final residual = 0.000505261958632, No Iterations 4
smoothSolver:  Solving for Uz, Initial residual = 0.00540356108031, Final residual = 0.000450246543037, No Iterations 4
GAMG:  Solving for p, Initial residual = 0.0140966726199, Final residual = 0.000587036009332, No Iterations 4
time step continuity errors : sum local = 0.994901532211, global = -0.00285818520345, cumulative = -9.47183427358
ExecutionTime = 4.69 s  ClockTime = 5 s

Time = 68

smoothSolver:  Solving for Ux, Initial residual = 0.00125189151079, Final residual = 8.64959132452e-05, No Iterations 4
smoothSolver:  Solving for Uy, Initial residual = 0.00621172532223, Final residual = 0.000511613263912, No Iterations 4
smoothSolver:  Solving for Uz, Initial residual = 0.00539694055819, Final residual = 0.000450918204316, No Iterations 4
GAMG:  Solving for p, Initial residual = 0.0129227460754, Final residual = 0.000544970603906, No Iterations 4
time step continuity errors : sum local = 0.912480308194, global = -0.00332708935678, cumulative = -9.47516136294
ExecutionTime = 4.75 s  ClockTime = 5 s

Time = 69

smoothSolver:  Solving for Ux, Initial residual = 0.00124385184803, Final residual = 8.63871159582e-05, No Iterations 4
smoothSolver:  Solving for Uy, Initial residual = 0.00613702208219, Final residual = 0.000508234828432, No Iterations 4
smoothSolver:  Solving for Uz, Initial residual = 0.00537960825034, Final residual = 0.000450425067795, No Iterations 4
GAMG:  Solving for p, Initial residual = 0.011786331799, Final residual = 0.000552749254875, No Iterations 4
time step continuity errors : sum local = 0.915195158985, global = -0.0164018028672, cumulative = -9.4915631658
ExecutionTime = 4.82 s  ClockTime = 5 s

Time = 70

smoothSolver:  Solving for Ux, Initial residual = 0.00123384146084, Final residual = 8.63077115974e-05, No Iterations 4
smoothSolver:  Solving for Uy, Initial residual = 0.00597904035257, Final residual = 0.000496354745984, No Iterations 4
smoothSolver:  Solving for Uz, Initial residual = 0.00536096628225, Final residual = 0.000449680045693, No Iterations 4
GAMG:  Solving for p, Initial residual = 0.0107389124778, Final residual = 0.000483912120409, No Iterations 4
time step continuity errors : sum local = 0.800656184337, global = 0.00592058955243, cumulative = -9.48564257625
ExecutionTime = 4.88 s  ClockTime = 5 s

Time = 71

smoothSolver:  Solving for Ux, Initial residual = 0.00122206616623, Final residual = 8.61643688145e-05, No Iterations 4
smoothSolver:  Solving for Uy, Initial residual = 0.00577437001304, Final residual = 0.000478321011886, No Iterations 4
smoothSolver:  Solving for Uz, Initial residual = 0.00533277637284, Final residual = 0.000447946587894, No Iterations 4
GAMG:  Solving for p, Initial residual = 0.010084519667, Final residual = 0.000369521984584, No Iterations 5
time step continuity errors : sum local = 0.607109413495, global = 0.0073589544358, cumulative = -9.47828362182
ExecutionTime = 4.95 s  ClockTime = 5 s

Time = 72

smoothSolver:  Solving for Ux, Initial residual = 0.00121622522, Final residual = 8.60148095561e-05, No Iterations 4
smoothSolver:  Solving for Uy, Initial residual = 0.0055719925498, Final residual = 0.00045663114085, No Iterations 4
smoothSolver:  Solving for Uz, Initial residual = 0.00530692061726, Final residual = 0.000446297732916, No Iterations 4
GAMG:  Solving for p, Initial residual = 0.00897496058626, Final residual = 0.000403932136137, No Iterations 4
time step continuity errors : sum local = 0.723222911824, global = 0.00503116296048, cumulative = -9.47325245886
ExecutionTime = 5.01 s  ClockTime = 5 s

Time = 73

smoothSolver:  Solving for Ux, Initial residual = 0.00121317849175, Final residual = 8.59681562074e-05, No Iterations 4
smoothSolver:  Solving for Uy, Initial residual = 0.00530001401048, Final residual = 0.000432897555834, No Iterations 4
smoothSolver:  Solving for Uz, Initial residual = 0.00527941625888, Final residual = 0.000444570298669, No Iterations 4
GAMG:  Solving for p, Initial residual = 0.0086377187585, Final residual = 0.000404597552998, No Iterations 4
time step continuity errors : sum local = 0.718329490542, global = 0.00553833521052, cumulative = -9.46771412365
ExecutionTime = 5.08 s  ClockTime = 5 s

Time = 74

smoothSolver:  Solving for Ux, Initial residual = 0.00120270105012, Final residual = 8.59079114599e-05, No Iterations 4
smoothSolver:  Solving for Uy, Initial residual = 0.00502106604959, Final residual = 0.000407445233025, No Iterations 4
smoothSolver:  Solving for Uz, Initial residual = 0.00526081090343, Final residual = 0.000443565917877, No Iterations 4
GAMG:  Solving for p, Initial residual = 0.00816030776209, Final residual = 0.000386129569938, No Iterations 4
time step continuity errors : sum local = 0.680403396271, global = 0.0046919282262, cumulative = -9.46302219542
ExecutionTime = 5.15 s  ClockTime = 6 s

Time = 75

smoothSolver:  Solving for Ux, Initial residual = 0.0011977260495, Final residual = 8.58708005665e-05, No Iterations 4
smoothSolver:  Solving for Uy, Initial residual = 0.00482672660266, Final residual = 0.000391870168312, No Iterations 4
smoothSolver:  Solving for Uz, Initial residual = 0.00524847068665, Final residual = 0.000443357285694, No Iterations 4
GAMG:  Solving for p, Initial residual = 0.0075510475611, Final residual = 0.000355563602467, No Iterations 4
time step continuity errors : sum local = 0.621730505178, global = 0.00122334652606, cumulative = -9.46179884889
ExecutionTime = 5.21 s  ClockTime = 6 s

Time = 76

smoothSolver:  Solving for Ux, Initial residual = 0.00118652255002, Final residual = 8.57976507298e-05, No Iterations 4
smoothSolver:  Solving for Uy, Initial residual = 0.00474215628668, Final residual = 0.000388113713487, No Iterations 4
smoothSolver:  Solving for Uz, Initial residual = 0.00524803501531, Final residual = 0.000444186101685, No Iterations 4
GAMG:  Solving for p, Initial residual = 0.00689584378835, Final residual = 0.000320160362173, No Iterations 4
time step continuity errors : sum local = 0.555132589825, global = -0.00318326406558, cumulative = -9.46498211296
ExecutionTime = 5.28 s  ClockTime = 6 s

Time = 77

smoothSolver:  Solving for Ux, Initial residual = 0.00117954506987, Final residual = 8.57090710689e-05, No Iterations 4
smoothSolver:  Solving for Uy, Initial residual = 0.00471620629607, Final residual = 0.000389276906678, No Iterations 4
smoothSolver:  Solving for Uz, Initial residual = 0.00524733422632, Final residual = 0.000444836285072, No Iterations 4
GAMG:  Solving for p, Initial residual = 0.00625377779663, Final residual = 0.000279366246253, No Iterations 4
time step continuity errors : sum local = 0.479999327848, global = -0.00444432838471, cumulative = -9.46942644134
ExecutionTime = 5.35 s  ClockTime = 6 s

Time = 78

smoothSolver:  Solving for Ux, Initial residual = 0.00117604270449, Final residual = 8.55653390824e-05, No Iterations 4
smoothSolver:  Solving for Uy, Initial residual = 0.00465808744373, Final residual = 0.000385985917237, No Iterations 4
smoothSolver:  Solving for Uz, Initial residual = 0.0052408166503, Final residual = 0.000444837326092, No Iterations 4
GAMG:  Solving for p, Initial residual = 0.00568777989917, Final residual = 0.000270831033236, No Iterations 4
time step continuity errors : sum local = 0.46112914767, global = -0.00580880971494, cumulative = -9.47523525106
ExecutionTime = 5.41 s  ClockTime = 6 s

Time = 79

smoothSolver:  Solving for Ux, Initial residual = 0.00117039277702, Final residual = 8.54536074824e-05, No Iterations 4
smoothSolver:  Solving for Uy, Initial residual = 0.0045397220784, Final residual = 0.000376596593501, No Iterations 4
smoothSolver:  Solving for Uz, Initial residual = 0.00523018941293, Final residual = 0.00044442163518, No Iterations 4
GAMG:  Solving for p, Initial residual = 0.00524507824682, Final residual = 0.000247679156465, No Iterations 4
time step continuity errors : sum local = 0.418334854806, global = -0.00367505085311, cumulative = -9.47891030191
ExecutionTime = 5.48 s  ClockTime = 6 s

Time = 80

smoothSolver:  Solving for Ux, Initial residual = 0.0011637906499, Final residual = 8.52972170895e-05, No Iterations 4
smoothSolver:  Solving for Uy, Initial residual = 0.00438074087354, Final residual = 0.000363349333818, No Iterations 4
smoothSolver:  Solving for Uz, Initial residual = 0.00521813894656, Final residual = 0.000443829431585, No Iterations 4
GAMG:  Solving for p, Initial residual = 0.00493026591636, Final residual = 0.000240742091821, No Iterations 4
time step continuity errors : sum local = 0.403839443395, global = 0.00038829657237, cumulative = -9.47852200534
ExecutionTime = 5.54 s  ClockTime = 6 s

Time = 81

smoothSolver:  Solving for Ux, Initial residual = 0.00115586636419, Final residual = 8.5112041633e-05, No Iterations 4
smoothSolver:  Solving for Uy, Initial residual = 0.00420912582431, Final residual = 0.000349120374155, No Iterations 4
smoothSolver:  Solving for Uz, Initial residual = 0.0052054860744, Final residual = 0.000443159108812, No Iterations 4
GAMG:  Solving for p, Initial residual = 0.00470470571959, Final residual = 0.000171216774743, No Iterations 6
time step continuity errors : sum local = 0.285219796078, global = -0.00371374852192, cumulative = -9.48223575386
ExecutionTime = 5.61 s  ClockTime = 6 s

Time = 82

smoothSolver:  Solving for Ux, Initial residual = 0.00115109882159, Final residual = 8.49235694406e-05, No Iterations 4
smoothSolver:  Solving for Uy, Initial residual = 0.00404463795772, Final residual = 0.000334975786209, No Iterations 4
smoothSolver:  Solving for Uz, Initial residual = 0.00518694249403, Final residual = 0.000441897709006, No Iterations 4
GAMG:  Solving for p, Initial residual = 0.00462878500082, Final residual = 0.000197330783348, No Iterations 4
time step continuity errors : sum local = 0.323696216174, global = 0.00369788386359, cumulative = -9.47853787
ExecutionTime = 5.68 s  ClockTime = 6 s

Time = 83

smoothSolver:  Solving for Ux, Initial residual = 0.00115874023736, Final residual = 8.47655286254e-05, No Iterations 4
smoothSolver:  Solving for Uy, Initial residual = 0.00390184207361, Final residual = 0.000323385030969, No Iterations 4
smoothSolver:  Solving for Uz, Initial residual = 0.00517603444107, Final residual = 0.000441464124141, No Iterations 4
GAMG:  Solving for p, Initial residual = 0.00428141602774, Final residual = 0.000133277332235, No Iterations 6
time step continuity errors : sum local = 0.217563736632, global = -0.00174090373136, cumulative = -9.48027877373
ExecutionTime = 5.75 s  ClockTime = 6 s

Time = 84

smoothSolver:  Solving for Ux, Initial residual = 0.00114402841838, Final residual = 8.45083785015e-05, No Iterations 4
smoothSolver:  Solving for Uy, Initial residual = 0.00380379020348, Final residual = 0.000314677671384, No Iterations 4
smoothSolver:  Solving for Uz, Initial residual = 0.0051659356508, Final residual = 0.000440870737904, No Iterations 4
GAMG:  Solving for p, Initial residual = 0.0041226394549, Final residual = 0.00018995460261, No Iterations 4
time step continuity errors : sum local = 0.305643987265, global = 0.00132566487111, cumulative = -9.47895310886
ExecutionTime = 5.81 s  ClockTime = 6 s

Time = 85

smoothSolver:  Solving for Ux, Initial residual = 0.00113444358015, Final residual = 8.42806926332e-05, No Iterations 4
smoothSolver:  Solving for Uy, Initial residual = 0.00380540823028, Final residual = 0.000317747851557, No Iterations 4
smoothSolver:  Solving for Uz, Initial residual = 0.00516662726818, Final residual = 0.000441304527851, No Iterations 4
GAMG:  Solving for p, Initial residual = 0.00373742497043, Final residual = 0.000145350357999, No Iterations 5
time step continuity errors : sum local = 0.232589893805, global = -0.00426809725538, cumulative = -9.48322120611
ExecutionTime = 5.89 s  ClockTime = 6 s

Time = 86

smoothSolver:  Solving for Ux, Initial residual = 0.00112104847514, Final residual = 8.40158010016e-05, No Iterations 4
smoothSolver:  Solving for Uy, Initial residual = 0.00369671546501, Final residual = 0.000308686438366, No Iterations 4
smoothSolver:  Solving for Uz, Initial residual = 0.00516302406885, Final residual = 0.000441419445193, No Iterations 4
GAMG:  Solving for p, Initial residual = 0.00345816013313, Final residual = 0.000113195060244, No Iterations 5
time step continuity errors : sum local = 0.178776044265, global = -0.00432605444519, cumulative = -9.48754726056
ExecutionTime = 5.95 s  ClockTime = 6 s

Time = 87

smoothSolver:  Solving for Ux, Initial residual = 0.00111565886585, Final residual = 8.37179825709e-05, No Iterations 4
smoothSolver:  Solving for Uy, Initial residual = 0.00369096286058, Final residual = 0.000310358682807, No Iterations 4
smoothSolver:  Solving for Uz, Initial residual = 0.00515852402824, Final residual = 0.000441416307517, No Iterations 4
GAMG:  Solving for p, Initial residual = 0.00318564889132, Final residual = 0.000129759320647, No Iterations 5
time step continuity errors : sum local = 0.20256185676, global = -0.00334459786061, cumulative = -9.49089185842
ExecutionTime = 6.01 s  ClockTime = 6 s

Time = 88

smoothSolver:  Solving for Ux, Initial residual = 0.00111240196581, Final residual = 8.34382710073e-05, No Iterations 4
smoothSolver:  Solving for Uy, Initial residual = 0.00362912508147, Final residual = 0.000304737250101, No Iterations 4
smoothSolver:  Solving for Uz, Initial residual = 0.00515209857876, Final residual = 0.000441266599292, No Iterations 4
GAMG:  Solving for p, Initial residual = 0.00292665259551, Final residual = 0.000112452201769, No Iterations 5
time step continuity errors : sum local = 0.173606536862, global = -0.00301403007803, cumulative = -9.4939058885
ExecutionTime = 6.08 s  ClockTime = 6 s

Time = 89

smoothSolver:  Solving for Ux, Initial residual = 0.00110911590236, Final residual = 8.30979175143e-05, No Iterations 4
smoothSolver:  Solving for Uy, Initial residual = 0.00359367748707, Final residual = 0.000301520207033, No Iterations 4
smoothSolver:  Solving for Uz, Initial residual = 0.00514651278829, Final residual = 0.000441080986179, No Iterations 4
GAMG:  Solving for p, Initial residual = 0.00274900456985, Final residual = 0.000109518349781, No Iterations 5
time step continuity errors : sum local = 0.167377714531, global = -0.00375244833956, cumulative = -9.49765833684
ExecutionTime = 6.15 s  ClockTime = 7 s

Time = 90

smoothSolver:  Solving for Ux, Initial residual = 0.00109869776401, Final residual = 8.27890369358e-05, No Iterations 4
smoothSolver:  Solving for Uy, Initial residual = 0.00352924832425, Final residual = 0.000295631566356, No Iterations 4
smoothSolver:  Solving for Uz, Initial residual = 0.00514229547232, Final residual = 0.000441011226195, No Iterations 4
GAMG:  Solving for p, Initial residual = 0.00260293275859, Final residual = 0.000116856522421, No Iterations 5
time step continuity errors : sum local = 0.176750482602, global = -0.00430916815227, cumulative = -9.50196750499
ExecutionTime = 6.21 s  ClockTime = 7 s

Time = 91

smoothSolver:  Solving for Ux, Initial residual = 0.00109187311476, Final residual = 8.24862095596e-05, No Iterations 4
smoothSolver:  Solving for Uy, Initial residual = 0.00345999785526, Final residual = 0.00028932551362, No Iterations 4
smoothSolver:  Solving for Uz, Initial residual = 0.0051358388948, Final residual = 0.000440768991254, No Iterations 4
GAMG:  Solving for p, Initial residual = 0.00250605111702, Final residual = 9.53618748696e-05, No Iterations 6
time step continuity errors : sum local = 0.14258836781, global = 0.00220049832876, cumulative = -9.49976700666
ExecutionTime = 6.28 s  ClockTime = 7 s

Time = 92

smoothSolver:  Solving for Ux, Initial residual = 0.00108797153427, Final residual = 8.21568665335e-05, No Iterations 4
smoothSolver:  Solving for Uy, Initial residual = 0.00340077103409, Final residual = 0.00028333861349, No Iterations 4
smoothSolver:  Solving for Uz, Initial residual = 0.00512869665279, Final residual = 0.000440408800903, No Iterations 4
GAMG:  Solving for p, Initial residual = 0.00245196249494, Final residual = 8.66455753849e-05, No Iterations 6
time step continuity errors : sum local = 0.127880649556, global = 0.0023150006432, cumulative = -9.49745200602
ExecutionTime = 6.35 s  ClockTime = 7 s

Time = 93

smoothSolver:  Solving for Ux, Initial residual = 0.00108394742088, Final residual = 8.18409443681e-05, No Iterations 4
smoothSolver:  Solving for Uy, Initial residual = 0.00335984834023, Final residual = 0.000279941247517, No Iterations 4
smoothSolver:  Solving for Uz, Initial residual = 0.00512372792932, Final residual = 0.000440253605385, No Iterations 4
GAMG:  Solving for p, Initial residual = 0.00232271727203, Final residual = 0.000101076359066, No Iterations 5
time step continuity errors : sum local = 0.147427994673, global = -0.00114055843708, cumulative = -9.49859256445
ExecutionTime = 6.41 s  ClockTime = 7 s

Time = 94

smoothSolver:  Solving for Ux, Initial residual = 0.0010763692013, Final residual = 8.14898926933e-05, No Iterations 4
smoothSolver:  Solving for Uy, Initial residual = 0.00330844020676, Final residual = 0.000276078217331, No Iterations 4
smoothSolver:  Solving for Uz, Initial residual = 0.00512187907442, Final residual = 0.000440349799575, No Iterations 4
GAMG:  Solving for p, Initial residual = 0.00216672275798, Final residual = 0.000101638742811, No Iterations 5
time step continuity errors : sum local = 0.146790112314, global = -0.00344069182218, cumulative = -9.50203325628
ExecutionTime = 6.48 s  ClockTime = 7 s

Time = 95

smoothSolver:  Solving for Ux, Initial residual = 0.00107506785643, Final residual = 8.10903155104e-05, No Iterations 4
smoothSolver:  Solving for Uy, Initial residual = 0.00328424434089, Final residual = 0.000274288854563, No Iterations 4
smoothSolver:  Solving for Uz, Initial residual = 0.00511930816615, Final residual = 0.000440338316865, No Iterations 4
GAMG:  Solving for p, Initial residual = 0.0020090042187, Final residual = 9.07925706385e-05, No Iterations 5
time step continuity errors : sum local = 0.12972524172, global = -0.00455937132457, cumulative = -9.5065926276
ExecutionTime = 6.54 s  ClockTime = 7 s

Time = 96

smoothSolver:  Solving for Ux, Initial residual = 0.00108291427857, Final residual = 8.08171796026e-05, No Iterations 4
smoothSolver:  Solving for Uy, Initial residual = 0.00326152595654, Final residual = 0.000272619975551, No Iterations 4
smoothSolver:  Solving for Uz, Initial residual = 0.0051127234674, Final residual = 0.000440174012787, No Iterations 4
GAMG:  Solving for p, Initial residual = 0.00189088196885, Final residual = 8.34333586117e-05, No Iterations 5
time step continuity errors : sum local = 0.117859514344, global = -0.00465346414039, cumulative = -9.51124609174
ExecutionTime = 6.61 s  ClockTime = 7 s

Time = 97

smoothSolver:  Solving for Ux, Initial residual = 0.00105791726632, Final residual = 8.03569384293e-05, No Iterations 4
smoothSolver:  Solving for Uy, Initial residual = 0.00325131874017, Final residual = 0.000272599267056, No Iterations 4
smoothSolver:  Solving for Uz, Initial residual = 0.00511171963208, Final residual = 0.00044022126503, No Iterations 4
GAMG:  Solving for p, Initial residual = 0.00177061072855, Final residual = 7.95605202921e-05, No Iterations 8
time step continuity errors : sum local = 0.111106781878, global = -0.000465449427415, cumulative = -9.51171154117
ExecutionTime = 6.68 s  ClockTime = 7 s

Time = 98

smoothSolver:  Solving for Ux, Initial residual = 0.00105501705664, Final residual = 8.00128474687e-05, No Iterations 4
smoothSolver:  Solving for Uy, Initial residual = 0.00323017685771, Final residual = 0.000270885366727, No Iterations 4
smoothSolver:  Solving for Uz, Initial residual = 0.0051090740696, Final residual = 0.000440047510352, No Iterations 4
GAMG:  Solving for p, Initial residual = 0.0016863537334, Final residual = 4.67693417134e-05, No Iterations 8
time step continuity errors : sum local = 0.0643949618571, global = -0.000995469907013, cumulative = -9.51270701108
ExecutionTime = 6.75 s  ClockTime = 7 s

Time = 99

smoothSolver:  Solving for Ux, Initial residual = 0.001042255905, Final residual = 7.96071444056e-05, No Iterations 4
smoothSolver:  Solving for Uy, Initial residual = 0.00316937088487, Final residual = 0.000265982603044, No Iterations 4
smoothSolver:  Solving for Uz, Initial residual = 0.00510637325683, Final residual = 0.000439914090426, No Iterations 4
GAMG:  Solving for p, Initial residual = 0.0015893113272, Final residual = 5.12703819239e-05, No Iterations 8
time step continuity errors : sum local = 0.0697277531363, global = -0.000532422704798, cumulative = -9.51323943378
ExecutionTime = 6.81 s  ClockTime = 7 s

Time = 100

smoothSolver:  Solving for Ux, Initial residual = 0.00103351421863, Final residual = 7.91897451168e-05, No Iterations 4
smoothSolver:  Solving for Uy, Initial residual = 0.00309376559187, Final residual = 0.000259821679145, No Iterations 4
smoothSolver:  Solving for Uz, Initial residual = 0.00510242946557, Final residual = 0.000439736389274, No Iterations 4
GAMG:  Solving for p, Initial residual = 0.00153166422996, Final residual = 5.77577390766e-05, No Iterations 8
time step continuity errors : sum local = 0.07763843363, global = -0.000383844655976, cumulative = -9.51362327844
ExecutionTime = 6.88 s  ClockTime = 7 s

Time = 101

smoothSolver:  Solving for Ux, Initial residual = 0.00103309430377, Final residual = 7.88778782925e-05, No Iterations 4
smoothSolver:  Solving for Uy, Initial residual = 0.00302858410293, Final residual = 0.000254447500609, No Iterations 4
smoothSolver:  Solving for Uz, Initial residual = 0.00509601357577, Final residual = 0.000439449417165, No Iterations 4
GAMG:  Solving for p, Initial residual = 0.00148515882021, Final residual = 6.50230275691e-05, No Iterations 8
time step continuity errors : sum local = 0.0863870174007, global = -0.000593184089603, cumulative = -9.51421646253
ExecutionTime = 6.98 s  ClockTime = 7 s

Time = 102

smoothSolver:  Solving for Ux, Initial residual = 0.0010219969571, Final residual = 7.84038331067e-05, No Iterations 4
smoothSolver:  Solving for Uy, Initial residual = 0.00300597863032, Final residual = 0.000253012580416, No Iterations 4
smoothSolver:  Solving for Uz, Initial residual = 0.00509268491319, Final residual = 0.000439270508015, No Iterations 4
GAMG:  Solving for p, Initial residual = 0.00143537201992, Final residual = 6.15132621909e-05, No Iterations 8
time step continuity errors : sum local = 0.0807524036861, global = -0.000566732853634, cumulative = -9.51478319538
ExecutionTime = 7.05 s  ClockTime = 7 s

Time = 103

smoothSolver:  Solving for Ux, Initial residual = 0.00101555196626, Final residual = 7.79641571425e-05, No Iterations 4
smoothSolver:  Solving for Uy, Initial residual = 0.00297812996592, Final residual = 0.000251040132259, No Iterations 4
smoothSolver:  Solving for Uz, Initial residual = 0.00508981810975, Final residual = 0.000439145565565, No Iterations 4
GAMG:  Solving for p, Initial residual = 0.00137155075349, Final residual = 5.78283647143e-05, No Iterations 8
time step continuity errors : sum local = 0.0749912291063, global = -0.000506195046739, cumulative = -9.51528939043
ExecutionTime = 7.12 s  ClockTime = 8 s

Time = 104

smoothSolver:  Solving for Ux, Initial residual = 0.00100779850057, Final residual = 7.75379809738e-05, No Iterations 4
smoothSolver:  Solving for Uy, Initial residual = 0.00294590042767, Final residual = 0.000248723506913, No Iterations 4
smoothSolver:  Solving for Uz, Initial residual = 0.00508747601483, Final residual = 0.000439085612312, No Iterations 4
GAMG:  Solving for p, Initial residual = 0.00130409235178, Final residual = 5.30955698644e-05, No Iterations 8
time step continuity errors : sum local = 0.0679989965728, global = -0.000511010848845, cumulative = -9.51580040128
ExecutionTime = 7.19 s  ClockTime = 8 s

Time = 105

smoothSolver:  Solving for Ux, Initial residual = 0.0010059432676, Final residual = 7.71352524634e-05, No Iterations 4
smoothSolver:  Solving for Uy, Initial residual = 0.00291587703367, Final residual = 0.000246340310902, No Iterations 4
smoothSolver:  Solving for Uz, Initial residual = 0.00508479094279, Final residual = 0.000439020806597, No Iterations 4
GAMG:  Solving for p, Initial residual = 0.0012316704406, Final residual = 4.88029032616e-05, No Iterations 8
time step continuity errors : sum local = 0.0617169027736, global = -0.000701177506016, cumulative = -9.51650157878
ExecutionTime = 7.26 s  ClockTime = 8 s

Time = 106

smoothSolver:  Solving for Ux, Initial residual = 0.000996918645918, Final residual = 7.66324837395e-05, No Iterations 4
smoothSolver:  Solving for Uy, Initial residual = 0.00289905237618, Final residual = 0.000244631192718, No Iterations 4
smoothSolver:  Solving for Uz, Initial residual = 0.00508368064189, Final residual = 0.000439021594598, No Iterations 4
GAMG:  Solving for p, Initial residual = 0.00114841912058, Final residual = 4.9389297969e-05, No Iterations 8
time step continuity errors : sum local = 0.0616784392229, global = -0.000633755393774, cumulative = -9.51713533418
ExecutionTime = 7.32 s  ClockTime = 8 s

Time = 107

smoothSolver:  Solving for Ux, Initial residual = 0.000990557830732, Final residual = 7.62209771223e-05, No Iterations 4
smoothSolver:  Solving for Uy, Initial residual = 0.0028709989897, Final residual = 0.000242395588779, No Iterations 4
smoothSolver:  Solving for Uz, Initial residual = 0.00508065848652, Final residual = 0.000438915057921, No Iterations 4
GAMG:  Solving for p, Initial residual = 0.00108856452866, Final residual = 5.4310733635e-05, No Iterations 8
time step continuity errors : sum local = 0.0669811619371, global = -0.000675075184814, cumulative = -9.51781040936
ExecutionTime = 7.39 s  ClockTime = 8 s

Time = 108

smoothSolver:  Solving for Ux, Initial residual = 0.000987200009279, Final residual = 7.580102738e-05, No Iterations 4
smoothSolver:  Solving for Uy, Initial residual = 0.0028430139432, Final residual = 0.000239970171501, No Iterations 4
smoothSolver:  Solving for Uz, Initial residual = 0.00507777393942, Final residual = 0.000438811397594, No Iterations 4
GAMG:  Solving for p, Initial residual = 0.00105369694685, Final residual = 3.7532335858e-05, No Iterations 10
time step continuity errors : sum local = 0.0457211303153, global = 0.00126415858774, cumulative = -9.51654625077
ExecutionTime = 7.46 s  ClockTime = 8 s

Time = 109

smoothSolver:  Solving for Ux, Initial residual = 0.000983828899439, Final residual = 7.53973654289e-05, No Iterations 4
smoothSolver:  Solving for Uy, Initial residual = 0.00282437133797, Final residual = 0.000238207305703, No Iterations 4
smoothSolver:  Solving for Uz, Initial residual = 0.00507438338661, Final residual = 0.000438665396807, No Iterations 4
GAMG:  Solving for p, Initial residual = 0.00103517596748, Final residual = 2.94729636022e-05, No Iterations 10
time step continuity errors : sum local = 0.0354264948919, global = 0.00120103406364, cumulative = -9.51534521671
ExecutionTime = 7.53 s  ClockTime = 8 s

Time = 110

smoothSolver:  Solving for Ux, Initial residual = 0.000973721289363, Final residual = 7.48740582913e-05, No Iterations 4
smoothSolver:  Solving for Uy, Initial residual = 0.0028150961406, Final residual = 0.000237287391601, No Iterations 4
smoothSolver:  Solving for Uz, Initial residual = 0.00507315366821, Final residual = 0.000438632084814, No Iterations 4
GAMG:  Solving for p, Initial residual = 0.00099358933833, Final residual = 2.69513842393e-05, No Iterations 10
time step continuity errors : sum local = 0.0320053804971, global = 0.00107708888323, cumulative = -9.51426812783
ExecutionTime = 7.6 s  ClockTime = 8 s

Time = 111

smoothSolver:  Solving for Ux, Initial residual = 0.000973113740981, Final residual = 7.43885527234e-05, No Iterations 4
smoothSolver:  Solving for Uy, Initial residual = 0.00281189544746, Final residual = 0.00023498773516, No Iterations 4
smoothSolver:  Solving for Uz, Initial residual = 0.00507169357448, Final residual = 0.000438528297983, No Iterations 4
GAMG:  Solving for p, Initial residual = 0.0010630047563, Final residual = 3.34085794713e-05, No Iterations 8
time step continuity errors : sum local = 0.0413579358003, global = -0.000350702767275, cumulative = -9.51461883059
ExecutionTime = 7.67 s  ClockTime = 8 s

Time = 112

smoothSolver:  Solving for Ux, Initial residual = 0.00097149333886, Final residual = 7.39707128584e-05, No Iterations 4
smoothSolver:  Solving for Uy, Initial residual = 0.00277221819233, Final residual = 0.00023255106454, No Iterations 4
smoothSolver:  Solving for Uz, Initial residual = 0.00506881384718, Final residual = 0.000438446969618, No Iterations 4
GAMG:  Solving for p, Initial residual = 0.0010084792866, Final residual = 2.90789370421e-05, No Iterations 9
time step continuity errors : sum local = 0.0355801423191, global = -0.000879973560169, cumulative = -9.51549880415
ExecutionTime = 7.74 s  ClockTime = 8 s

Time = 113

smoothSolver:  Solving for Ux, Initial residual = 0.000969417022643, Final residual = 7.37142893936e-05, No Iterations 4
smoothSolver:  Solving for Uy, Initial residual = 0.00274199771299, Final residual = 0.00023056040666, No Iterations 4
smoothSolver:  Solving for Uz, Initial residual = 0.0050618916648, Final residual = 0.000438142342266, No Iterations 4
GAMG:  Solving for p, Initial residual = 0.00096740739712, Final residual = 2.52312753024e-05, No Iterations 9
time step continuity errors : sum local = 0.030446974813, global = -0.000650845247202, cumulative = -9.5161496494
ExecutionTime = 7.81 s  ClockTime = 8 s

Time = 114

smoothSolver:  Solving for Ux, Initial residual = 0.000967004359961, Final residual = 7.33776241878e-05, No Iterations 4
smoothSolver:  Solving for Uy, Initial residual = 0.00272924038782, Final residual = 0.000230430716704, No Iterations 4
smoothSolver:  Solving for Uz, Initial residual = 0.00505421735875, Final residual = 0.000437892981001, No Iterations 4
GAMG:  Solving for p, Initial residual = 0.000906270743024, Final residual = 3.75155392068e-05, No Iterations 7
time step continuity errors : sum local = 0.0447021999164, global = 0.002542045103, cumulative = -9.5136076043
ExecutionTime = 7.88 s  ClockTime = 8 s

Time = 115

smoothSolver:  Solving for Ux, Initial residual = 0.000951599513737, Final residual = 7.25334593955e-05, No Iterations 4
smoothSolver:  Solving for Uy, Initial residual = 0.00274093616724, Final residual = 0.000231608999991, No Iterations 4
smoothSolver:  Solving for Uz, Initial residual = 0.00505851125303, Final residual = 0.000438085404508, No Iterations 4
GAMG:  Solving for p, Initial residual = 0.000850541203614, Final residual = 4.05877983735e-05, No Iterations 7
time step continuity errors : sum local = 0.047806903368, global = 0.00126966754202, cumulative = -9.51233793675
ExecutionTime = 7.95 s  ClockTime = 8 s

Time = 116

smoothSolver:  Solving for Ux, Initial residual = 0.000943374141914, Final residual = 7.19925939771e-05, No Iterations 4
smoothSolver:  Solving for Uy, Initial residual = 0.00272417632572, Final residual = 0.0002300661703, No Iterations 4
smoothSolver:  Solving for Uz, Initial residual = 0.00505908609716, Final residual = 0.000438064030676, No Iterations 4
GAMG:  Solving for p, Initial residual = 0.000804419245503, Final residual = 3.72588360929e-05, No Iterations 7
time step continuity errors : sum local = 0.043325983504, global = -0.000593623332427, cumulative = -9.51293156009
ExecutionTime = 8.03 s  ClockTime = 8 s

Time = 117

smoothSolver:  Solving for Ux, Initial residual = 0.000926236237362, Final residual = 7.14009116348e-05, No Iterations 4
smoothSolver:  Solving for Uy, Initial residual = 0.00269149219654, Final residual = 0.000227297808998, No Iterations 4
smoothSolver:  Solving for Uz, Initial residual = 0.00505924263562, Final residual = 0.000438032955315, No Iterations 4
GAMG:  Solving for p, Initial residual = 0.000779749136385, Final residual = 3.7955806153e-05, No Iterations 7
time step continuity errors : sum local = 0.043545653644, global = -0.000350474637593, cumulative = -9.51328203472
ExecutionTime = 8.1 s  ClockTime = 8 s

Time = 118

smoothSolver:  Solving for Ux, Initial residual = 0.000917579505351, Final residual = 7.08745891317e-05, No Iterations 4
smoothSolver:  Solving for Uy, Initial residual = 0.00265007726159, Final residual = 0.000223782383399, No Iterations 4
smoothSolver:  Solving for Uz, Initial residual = 0.00505757179788, Final residual = 0.000437913574709, No Iterations 4
GAMG:  Solving for p, Initial residual = 0.000752944687215, Final residual = 3.58701201807e-05, No Iterations 7
time step continuity errors : sum local = 0.0406085546745, global = -0.000806695021741, cumulative = -9.51408872975
ExecutionTime = 8.17 s  ClockTime = 9 s

Time = 119

smoothSolver:  Solving for Ux, Initial residual = 0.000908362125417, Final residual = 7.04065706059e-05, No Iterations 4
smoothSolver:  Solving for Uy, Initial residual = 0.00261801793711, Final residual = 0.000221160309234, No Iterations 4
smoothSolver:  Solving for Uz, Initial residual = 0.00505418682631, Final residual = 0.000437706090581, No Iterations 4
GAMG:  Solving for p, Initial residual = 0.000729537675991, Final residual = 3.55313092883e-05, No Iterations 7
time step continuity errors : sum local = 0.0396971188144, global = -0.000616395866044, cumulative = -9.51470512561
ExecutionTime = 8.24 s  ClockTime = 9 s

Time = 120

smoothSolver:  Solving for Ux, Initial residual = 0.000903183646488, Final residual = 6.9999015431e-05, No Iterations 4
smoothSolver:  Solving for Uy, Initial residual = 0.00259444510373, Final residual = 0.000219216944647, No Iterations 4
smoothSolver:  Solving for Uz, Initial residual = 0.00505098742582, Final residual = 0.000437542848489, No Iterations 4
GAMG:  Solving for p, Initial residual = 0.000711177323778, Final residual = 3.28843361558e-05, No Iterations 10
time step continuity errors : sum local = 0.0362724311515, global = -0.000731161707255, cumulative = -9.51543628732
ExecutionTime = 8.31 s  ClockTime = 9 s

Time = 121

smoothSolver:  Solving for Ux, Initial residual = 0.000901252019568, Final residual = 6.95753292613e-05, No Iterations 4
smoothSolver:  Solving for Uy, Initial residual = 0.00258540826228, Final residual = 0.000218414831746, No Iterations 4
smoothSolver:  Solving for Uz, Initial residual = 0.00504744156578, Final residual = 0.000437329321839, No Iterations 4
GAMG:  Solving for p, Initial residual = 0.000716702494064, Final residual = 1.88969036553e-05, No Iterations 10
time step continuity errors : sum local = 0.0205754363793, global = 0.000196603248844, cumulative = -9.51523968407
ExecutionTime = 8.38 s  ClockTime = 9 s

Time = 122

smoothSolver:  Solving for Ux, Initial residual = 0.000897010398488, Final residual = 6.90914883858e-05, No Iterations 4
smoothSolver:  Solving for Uy, Initial residual = 0.00256973217509, Final residual = 0.000217135474223, No Iterations 4
smoothSolver:  Solving for Uz, Initial residual = 0.00504568948867, Final residual = 0.000437212929282, No Iterations 4
GAMG:  Solving for p, Initial residual = 0.000701143349203, Final residual = 3.30080804537e-05, No Iterations 7
time step continuity errors : sum local = 0.0355087465677, global = -0.000690253781042, cumulative = -9.51592993785
ExecutionTime = 8.45 s  ClockTime = 9 s

Time = 123

smoothSolver:  Solving for Ux, Initial residual = 0.000887001001375, Final residual = 6.85980078836e-05, No Iterations 4
smoothSolver:  Solving for Uy, Initial residual = 0.00254290121766, Final residual = 0.000214983159306, No Iterations 4
smoothSolver:  Solving for Uz, Initial residual = 0.00504351846656, Final residual = 0.000437109312257, No Iterations 4
GAMG:  Solving for p, Initial residual = 0.000672276120618, Final residual = 1.3899901613e-05, No Iterations 11
time step continuity errors : sum local = 0.0147746095827, global = 8.59123663156e-05, cumulative = -9.51584402549
ExecutionTime = 8.53 s  ClockTime = 9 s

Time = 124

smoothSolver:  Solving for Ux, Initial residual = 0.000880436174619, Final residual = 6.80985370174e-05, No Iterations 4
smoothSolver:  Solving for Uy, Initial residual = 0.00253146327871, Final residual = 0.000213938312809, No Iterations 4
smoothSolver:  Solving for Uz, Initial residual = 0.00504098072711, Final residual = 0.00043695735116, No Iterations 4
GAMG:  Solving for p, Initial residual = 0.000658311355358, Final residual = 3.24049492293e-05, No Iterations 7
[...]
smoothSolver:  Solving for Uz, Initial residual = 1.24233994639e-05, Final residual = 6.79391863112e-06, No Iterations 1
GAMG:  Solving for p, Initial residual = 6.02085114797e-06, Final residual = 7.96216371286e-07, No Iterations 4
time step continuity errors : sum local = 6.73669896214e-06, global = 2.29129326433e-08, cumulative = -9.51020579175
ExecutionTime = 136.43 s  ClockTime = 137 s

Time = 1979

smoothSolver:  Solving for Ux, Initial residual = 2.79697456704e-05, Final residual = 8.31838021372e-06, No Iterations 2
smoothSolver:  Solving for Uy, Initial residual = 0.000188386456089, Final residual = 1.68152250776e-05, No Iterations 4
smoothSolver:  Solving for Uz, Initial residual = 1.23236559758e-05, Final residual = 6.73933290331e-06, No Iterations 1
GAMG:  Solving for p, Initial residual = 6.01747455914e-06, Final residual = 7.9687054101e-07, No Iterations 4
time step continuity errors : sum local = 6.74216793182e-06, global = 2.31960611399e-08, cumulative = -9.51020576856
ExecutionTime = 136.51 s  ClockTime = 137 s

Time = 1980

smoothSolver:  Solving for Ux, Initial residual = 2.786103703e-05, Final residual = 8.28547974514e-06, No Iterations 2
smoothSolver:  Solving for Uy, Initial residual = 0.000186632654531, Final residual = 1.66586911011e-05, No Iterations 4
smoothSolver:  Solving for Uz, Initial residual = 1.22225641393e-05, Final residual = 6.68399860587e-06, No Iterations 1
GAMG:  Solving for p, Initial residual = 6.01515818627e-06, Final residual = 7.97418086739e-07, No Iterations 4
time step continuity errors : sum local = 6.74673493716e-06, global = 2.35320738671e-08, cumulative = -9.51020574502
ExecutionTime = 136.58 s  ClockTime = 137 s

Time = 1981

smoothSolver:  Solving for Ux, Initial residual = 2.77490926294e-05, Final residual = 8.25129870141e-06, No Iterations 2
smoothSolver:  Solving for Uy, Initial residual = 0.000184863390187, Final residual = 1.6500630972e-05, No Iterations 4
smoothSolver:  Solving for Uz, Initial residual = 1.21200516042e-05, Final residual = 6.62789196391e-06, No Iterations 1
GAMG:  Solving for p, Initial residual = 6.01247608723e-06, Final residual = 7.97827671188e-07, No Iterations 4
time step continuity errors : sum local = 6.75013501364e-06, global = 2.38654515486e-08, cumulative = -9.51020572116
ExecutionTime = 136.65 s  ClockTime = 137 s

Time = 1982

smoothSolver:  Solving for Ux, Initial residual = 2.7648549051e-05, Final residual = 8.2202648246e-06, No Iterations 2
smoothSolver:  Solving for Uy, Initial residual = 0.000183164883156, Final residual = 1.63491732819e-05, No Iterations 4
smoothSolver:  Solving for Uz, Initial residual = 1.2021887811e-05, Final residual = 6.5741602446e-06, No Iterations 1
GAMG:  Solving for p, Initial residual = 6.01138995877e-06, Final residual = 7.96680670848e-07, No Iterations 4
time step continuity errors : sum local = 6.74036567474e-06, global = 2.35720516149e-08, cumulative = -9.51020569759
ExecutionTime = 136.73 s  ClockTime = 137 s

Time = 1983

smoothSolver:  Solving for Ux, Initial residual = 2.7548789218e-05, Final residual = 8.19033634729e-06, No Iterations 2
smoothSolver:  Solving for Uy, Initial residual = 0.000181502974688, Final residual = 1.62012888649e-05, No Iterations 4
smoothSolver:  Solving for Uz, Initial residual = 1.19258253044e-05, Final residual = 6.52159002769e-06, No Iterations 1
GAMG:  Solving for p, Initial residual = 6.01298314149e-06, Final residual = 7.98180148763e-07, No Iterations 4
time step continuity errors : sum local = 6.75298733548e-06, global = 2.40714316114e-08, cumulative = -9.51020567351
ExecutionTime = 136.8 s  ClockTime = 137 s

Time = 1984

smoothSolver:  Solving for Ux, Initial residual = 2.74484160936e-05, Final residual = 8.16015031612e-06, No Iterations 2
smoothSolver:  Solving for Uy, Initial residual = 0.000179825011436, Final residual = 1.60523760271e-05, No Iterations 4
smoothSolver:  Solving for Uz, Initial residual = 1.18284401187e-05, Final residual = 6.46829702298e-06, No Iterations 1
GAMG:  Solving for p, Initial residual = 6.01708335573e-06, Final residual = 7.96466721227e-07, No Iterations 4
time step continuity errors : sum local = 6.73842648934e-06, global = 2.35306736413e-08, cumulative = -9.51020564998
ExecutionTime = 136.87 s  ClockTime = 137 s

Time = 1985

smoothSolver:  Solving for Ux, Initial residual = 2.73449925644e-05, Final residual = 8.1288325928e-06, No Iterations 2
smoothSolver:  Solving for Uy, Initial residual = 0.000178130933488, Final residual = 1.59022770604e-05, No Iterations 4
smoothSolver:  Solving for Uz, Initial residual = 1.17297603019e-05, Final residual = 6.41428721334e-06, No Iterations 1
GAMG:  Solving for p, Initial residual = 6.0181233923e-06, Final residual = 7.96649591783e-07, No Iterations 4
time step continuity errors : sum local = 6.73990971468e-06, global = 2.34448953609e-08, cumulative = -9.51020562654
ExecutionTime = 136.94 s  ClockTime = 137 s

Time = 1986

smoothSolver:  Solving for Ux, Initial residual = 2.72392980395e-05, Final residual = 8.09701639237e-06, No Iterations 2
smoothSolver:  Solving for Uy, Initial residual = 0.000176420022058, Final residual = 1.57509954664e-05, No Iterations 4
smoothSolver:  Solving for Uz, Initial residual = 1.16297427169e-05, Final residual = 6.35955099222e-06, No Iterations 1
GAMG:  Solving for p, Initial residual = 6.01581098889e-06, Final residual = 7.96262768923e-07, No Iterations 4
time step continuity errors : sum local = 6.73657351901e-06, global = 2.33451979098e-08, cumulative = -9.51020560319
ExecutionTime = 137.01 s  ClockTime = 137 s

Time = 1987

smoothSolver:  Solving for Ux, Initial residual = 2.71320497052e-05, Final residual = 8.06413018899e-06, No Iterations 2
smoothSolver:  Solving for Uy, Initial residual = 0.000174692857421, Final residual = 1.5598275651e-05, No Iterations 4
smoothSolver:  Solving for Uz, Initial residual = 1.1528352427e-05, Final residual = 6.30407526947e-06, No Iterations 1
GAMG:  Solving for p, Initial residual = 6.00978967147e-06, Final residual = 7.9575205498e-07, No Iterations 4
time step continuity errors : sum local = 6.7321896866e-06, global = 2.32618701385e-08, cumulative = -9.51020557993
ExecutionTime = 137.09 s  ClockTime = 137 s

Time = 1988

smoothSolver:  Solving for Ux, Initial residual = 2.70223959522e-05, Final residual = 8.03081259892e-06, No Iterations 2
smoothSolver:  Solving for Uy, Initial residual = 0.000172950231326, Final residual = 1.54444234169e-05, No Iterations 4
smoothSolver:  Solving for Uz, Initial residual = 1.14256076122e-05, Final residual = 6.24785046784e-06, No Iterations 1
GAMG:  Solving for p, Initial residual = 6.0015867232e-06, Final residual = 7.94860334839e-07, No Iterations 4
time step continuity errors : sum local = 6.72458311921e-06, global = 2.31867785464e-08, cumulative = -9.51020555675
ExecutionTime = 137.16 s  ClockTime = 138 s

Time = 1989

smoothSolver:  Solving for Ux, Initial residual = 2.69096178378e-05, Final residual = 7.99657576948e-06, No Iterations 2
smoothSolver:  Solving for Uy, Initial residual = 0.000171193107218, Final residual = 1.52891220223e-05, No Iterations 4
smoothSolver:  Solving for Uz, Initial residual = 1.13214557189e-05, Final residual = 6.19085875062e-06, No Iterations 1
GAMG:  Solving for p, Initial residual = 5.98780549934e-06, Final residual = 7.93445567012e-07, No Iterations 4
time step continuity errors : sum local = 6.71255221672e-06, global = 2.31159838442e-08, cumulative = -9.51020553363
ExecutionTime = 137.23 s  ClockTime = 138 s

Time = 1990

smoothSolver:  Solving for Ux, Initial residual = 2.67991126998e-05, Final residual = 7.96254864134e-06, No Iterations 2
smoothSolver:  Solving for Uy, Initial residual = 0.000169442218179, Final residual = 1.5134264306e-05, No Iterations 4
smoothSolver:  Solving for Uz, Initial residual = 1.12173060414e-05, Final residual = 6.1338721882e-06, No Iterations 1
GAMG:  Solving for p, Initial residual = 5.96699345161e-06, Final residual = 7.91362247678e-07, No Iterations 4
time step continuity errors : sum local = 6.69486608888e-06, global = 2.30432543474e-08, cumulative = -9.51020551059
ExecutionTime = 137.3 s  ClockTime = 138 s

Time = 1991

smoothSolver:  Solving for Ux, Initial residual = 2.6691984945e-05, Final residual = 7.92925755974e-06, No Iterations 2
smoothSolver:  Solving for Uy, Initial residual = 0.000167709176758, Final residual = 1.49809518328e-05, No Iterations 4
smoothSolver:  Solving for Uz, Initial residual = 1.11139499082e-05, Final residual = 6.07732214283e-06, No Iterations 1
GAMG:  Solving for p, Initial residual = 5.94332338182e-06, Final residual = 7.88460890308e-07, No Iterations 4
time step continuity errors : sum local = 6.67026028762e-06, global = 2.29604782626e-08, cumulative = -9.51020548763
ExecutionTime = 137.37 s  ClockTime = 138 s

Time = 1992

smoothSolver:  Solving for Ux, Initial residual = 2.6581356755e-05, Final residual = 7.89619410535e-06, No Iterations 2
smoothSolver:  Solving for Uy, Initial residual = 0.000165979551389, Final residual = 1.48281518709e-05, No Iterations 4
smoothSolver:  Solving for Uz, Initial residual = 1.10105797103e-05, Final residual = 6.02075670251e-06, No Iterations 1
GAMG:  Solving for p, Initial residual = 5.9228414655e-06, Final residual = 7.84660416207e-07, No Iterations 4
time step continuity errors : sum local = 6.63804905774e-06, global = 2.28612011888e-08, cumulative = -9.51020546476
ExecutionTime = 137.44 s  ClockTime = 138 s

Time = 1993

smoothSolver:  Solving for Ux, Initial residual = 2.64730651353e-05, Final residual = 7.86289082288e-06, No Iterations 2
smoothSolver:  Solving for Uy, Initial residual = 0.000164256324486, Final residual = 1.4676024862e-05, No Iterations 4
smoothSolver:  Solving for Uz, Initial residual = 1.09073612772e-05, Final residual = 5.96427273478e-06, No Iterations 1
GAMG:  Solving for p, Initial residual = 5.89669460803e-06, Final residual = 7.79162801055e-07, No Iterations 4
time step continuity errors : sum local = 6.59148131463e-06, global = 2.21024691941e-08, cumulative = -9.51020544266
ExecutionTime = 137.52 s  ClockTime = 138 s

Time = 1994

smoothSolver:  Solving for Ux, Initial residual = 2.63603282035e-05, Final residual = 7.82867868887e-06, No Iterations 2
smoothSolver:  Solving for Uy, Initial residual = 0.000162516393611, Final residual = 1.45221812152e-05, No Iterations 4
smoothSolver:  Solving for Uz, Initial residual = 1.08026445218e-05, Final residual = 5.90696341799e-06, No Iterations 1
GAMG:  Solving for p, Initial residual = 5.87337722043e-06, Final residual = 7.75908824765e-07, No Iterations 4
time step continuity errors : sum local = 6.56389488569e-06, global = 1.73093560809e-08, cumulative = -9.51020542535
ExecutionTime = 137.59 s  ClockTime = 138 s

Time = 1995

smoothSolver:  Solving for Ux, Initial residual = 2.62485211386e-05, Final residual = 7.79371271473e-06, No Iterations 2
smoothSolver:  Solving for Uy, Initial residual = 0.00016075778437, Final residual = 1.43666590866e-05, No Iterations 4
smoothSolver:  Solving for Uz, Initial residual = 1.06964122659e-05, Final residual = 5.84883253521e-06, No Iterations 1
GAMG:  Solving for p, Initial residual = 5.84565552754e-06, Final residual = 7.26221715863e-07, No Iterations 4
time step continuity errors : sum local = 6.1435058177e-06, global = -2.29239188631e-08, cumulative = -9.51020544828
ExecutionTime = 137.66 s  ClockTime = 138 s

Time = 1996

smoothSolver:  Solving for Ux, Initial residual = 2.61305607195e-05, Final residual = 7.75781324266e-06, No Iterations 2
smoothSolver:  Solving for Uy, Initial residual = 0.000158981802909, Final residual = 1.42093422872e-05, No Iterations 4
smoothSolver:  Solving for Uz, Initial residual = 1.05886343023e-05, Final residual = 5.78983900996e-06, No Iterations 1
GAMG:  Solving for p, Initial residual = 5.81036438038e-06, Final residual = 7.93520495216e-07, No Iterations 4
time step continuity errors : sum local = 6.71275129709e-06, global = 2.23574428984e-08, cumulative = -9.51020542592
ExecutionTime = 137.73 s  ClockTime = 138 s

Time = 1997

smoothSolver:  Solving for Ux, Initial residual = 2.60102891739e-05, Final residual = 7.72093224163e-06, No Iterations 2
smoothSolver:  Solving for Uy, Initial residual = 0.00015718487181, Final residual = 1.40498895674e-05, No Iterations 4
smoothSolver:  Solving for Uz, Initial residual = 1.04792160165e-05, Final residual = 5.72995254282e-06, No Iterations 1
GAMG:  Solving for p, Initial residual = 5.79893111428e-06, Final residual = 7.73479663489e-07, No Iterations 4
time step continuity errors : sum local = 6.54316109988e-06, global = 2.0813647047e-08, cumulative = -9.51020540511
ExecutionTime = 137.81 s  ClockTime = 138 s

Time = 1998

smoothSolver:  Solving for Ux, Initial residual = 2.58951257579e-05, Final residual = 7.68484427137e-06, No Iterations 2
smoothSolver:  Solving for Uy, Initial residual = 0.000155403615132, Final residual = 1.38917798576e-05, No Iterations 4
smoothSolver:  Solving for Uz, Initial residual = 1.03704570037e-05, Final residual = 5.67043188691e-06, No Iterations 1
GAMG:  Solving for p, Initial residual = 5.79035212819e-06, Final residual = 7.64750466878e-07, No Iterations 4
time step continuity errors : sum local = 6.46926269639e-06, global = 2.05623972334e-08, cumulative = -9.51020538454
ExecutionTime = 137.88 s  ClockTime = 138 s

Time = 1999

smoothSolver:  Solving for Ux, Initial residual = 2.57767172772e-05, Final residual = 7.64778990513e-06, No Iterations 2
smoothSolver:  Solving for Uy, Initial residual = 0.000153598198224, Final residual = 1.37315981417e-05, No Iterations 4
smoothSolver:  Solving for Uz, Initial residual = 1.02598762126e-05, Final residual = 5.60990268424e-06, No Iterations 1
GAMG:  Solving for p, Initial residual = 5.77202857094e-06, Final residual = 7.55876809912e-07, No Iterations 4
time step continuity errors : sum local = 6.39414351493e-06, global = 2.04913365124e-08, cumulative = -9.51020536405
ExecutionTime = 137.95 s  ClockTime = 138 s

Time = 2000

smoothSolver:  Solving for Ux, Initial residual = 2.56566520109e-05, Final residual = 7.60936081357e-06, No Iterations 2
smoothSolver:  Solving for Uy, Initial residual = 0.000151765487886, Final residual = 1.35690110173e-05, No Iterations 4
smoothSolver:  Solving for Uz, Initial residual = 1.01472787097e-05, Final residual = 5.54825980384e-06, No Iterations 1
GAMG:  Solving for p, Initial residual = 5.75030898148e-06, Final residual = 7.46959505884e-07, No Iterations 4
time step continuity errors : sum local = 6.31865605788e-06, global = 2.04471837762e-08, cumulative = -9.5102053436
ExecutionTime = 138.04 s  ClockTime = 138 s

    writing object shearStress
Time = 2001

smoothSolver:  Solving for Ux, Initial residual = 2.55344158494e-05, Final residual = 7.57003673538e-06, No Iterations 2
smoothSolver:  Solving for Uy, Initial residual = 0.000149903089568, Final residual = 1.34038155395e-05, No Iterations 4
smoothSolver:  Solving for Uz, Initial residual = 1.00325474149e-05, Final residual = 5.48545559371e-06, No Iterations 1
GAMG:  Solving for p, Initial residual = 5.72742716317e-06, Final residual = 7.38698202838e-07, No Iterations 4
time step continuity errors : sum local = 6.24871858188e-06, global = 2.04137555287e-08, cumulative = -9.51020532319
ExecutionTime = 138.15 s  ClockTime = 139 s

Time = 2002

smoothSolver:  Solving for Ux, Initial residual = 2.54074973078e-05, Final residual = 7.53006438799e-06, No Iterations 2
smoothSolver:  Solving for Uy, Initial residual = 0.000148031639271, Final residual = 1.32378351345e-05, No Iterations 4
smoothSolver:  Solving for Uz, Initial residual = 9.91707376481e-06, Final residual = 9.91707376481e-06, No Iterations 0
GAMG:  Solving for p, Initial residual = 9.43077079165e-05, Final residual = 4.65733746847e-06, No Iterations 9
time step continuity errors : sum local = 3.93972122913e-05, global = 8.96002133864e-08, cumulative = -9.51020523359
ExecutionTime = 138.23 s  ClockTime = 139 s

Time = 2003

smoothSolver:  Solving for Ux, Initial residual = 2.53363324988e-05, Final residual = 7.49308463053e-06, No Iterations 2
smoothSolver:  Solving for Uy, Initial residual = 0.000116898055911, Final residual = 1.03329038618e-05, No Iterations 4
smoothSolver:  Solving for Uz, Initial residual = 1.01996296361e-05, Final residual = 5.57137860529e-06, No Iterations 1
GAMG:  Solving for p, Initial residual = 5.75901440992e-05, Final residual = 2.3544560157e-06, No Iterations 9
time step continuity errors : sum local = 1.9914842905e-05, global = -9.60600569142e-08, cumulative = -9.51020532965
ExecutionTime = 138.3 s  ClockTime = 139 s

Time = 2004

smoothSolver:  Solving for Ux, Initial residual = 2.53845569521e-05, Final residual = 7.48383865505e-06, No Iterations 2
smoothSolver:  Solving for Uy, Initial residual = 0.00011459295066, Final residual = 1.0220742013e-05, No Iterations 4
smoothSolver:  Solving for Uz, Initial residual = 1.01254313734e-05, Final residual = 5.53218192219e-06, No Iterations 1
GAMG:  Solving for p, Initial residual = 4.62218594975e-05, Final residual = 2.0951380637e-06, No Iterations 8
time step continuity errors : sum local = 1.77209357799e-05, global = -3.85191789066e-08, cumulative = -9.51020536817
ExecutionTime = 138.38 s  ClockTime = 139 s

Time = 2005

smoothSolver:  Solving for Ux, Initial residual = 2.52837235761e-05, Final residual = 7.45746158271e-06, No Iterations 2
smoothSolver:  Solving for Uy, Initial residual = 0.000121838696883, Final residual = 1.08799238952e-05, No Iterations 4
smoothSolver:  Solving for Uz, Initial residual = 9.91894130394e-06, Final residual = 9.91894130394e-06, No Iterations 0
GAMG:  Solving for p, Initial residual = 6.95002471679e-05, Final residual = 2.27500231022e-06, No Iterations 10
time step continuity errors : sum local = 1.92426819546e-05, global = 5.70294342053e-08, cumulative = -9.51020531114
ExecutionTime = 138.46 s  ClockTime = 139 s

Time = 2006

smoothSolver:  Solving for Ux, Initial residual = 2.51381434242e-05, Final residual = 7.41566569752e-06, No Iterations 2
smoothSolver:  Solving for Uy, Initial residual = 0.000102345164246, Final residual = 9.0533938567e-06, No Iterations 4
smoothSolver:  Solving for Uz, Initial residual = 1.0074349799e-05, Final residual = 5.50300091992e-06, No Iterations 1
GAMG:  Solving for p, Initial residual = 4.71642801602e-05, Final residual = 2.2486373434e-06, No Iterations 9
time step continuity errors : sum local = 1.90180630967e-05, global = -2.45687936252e-08, cumulative = -9.51020533571
ExecutionTime = 138.54 s  ClockTime = 139 s

Time = 2007

smoothSolver:  Solving for Ux, Initial residual = 2.50969589199e-05, Final residual = 7.39766890151e-06, No Iterations 2
smoothSolver:  Solving for Uy, Initial residual = 0.000110287025001, Final residual = 9.84820625996e-06, No Iterations 4
smoothSolver:  Solving for Uz, Initial residual = 9.9040683448e-06, Final residual = 9.9040683448e-06, No Iterations 0
GAMG:  Solving for p, Initial residual = 6.28766112957e-05, Final residual = 2.11522299575e-06, No Iterations 10
time step continuity errors : sum local = 1.78902615577e-05, global = 6.2764445209e-08, cumulative = -9.51020527294
ExecutionTime = 138.62 s  ClockTime = 139 s

Time = 2008

smoothSolver:  Solving for Ux, Initial residual = 2.49626006598e-05, Final residual = 7.35683439566e-06, No Iterations 2
smoothSolver:  Solving for Uy, Initial residual = 9.16805754247e-05, Final residual = 8.09869408368e-06, No Iterations 4
smoothSolver:  Solving for Uz, Initial residual = 1.00459754188e-05, Final residual = 5.48685913922e-06, No Iterations 1
GAMG:  Solving for p, Initial residual = 5.29990116763e-05, Final residual = 2.62909488788e-06, No Iterations 9
time step continuity errors : sum local = 2.22350191599e-05, global = -7.68857043953e-08, cumulative = -9.51020534983
ExecutionTime = 138.69 s  ClockTime = 139 s


SIMPLE solution converged in 2008 iterations

    writing object shearStress
End

Finalising parallel run
