/*---------------------------------------------------------------------------*\
  =========                 |
  \\      /  F ield         | OpenFOAM: The Open Source CFD Toolbox
   \\    /   O peration     | Website:  https://openfoam.org
    \\  /    A nd           | Version:  9
     \\/     M anipulation  |
\*---------------------------------------------------------------------------*/
Build  : 9-b456138dc4bc
Exec   : simpleFoam -parallel
Date   : Apr 12 2022
Time   : 12:24:43
Host   : "KORIN-LAB"
PID    : 4988
I/O    : uncollated
Case   : /home/colin/OpenFOAM/colin-9/run/wsl/wedge_needle/35_temp/90_needle_layer
nProcs : 6
Slaves : 
5
(
"KORIN-LAB.4989"
"KORIN-LAB.4990"
"KORIN-LAB.4991"
"KORIN-LAB.4992"
"KORIN-LAB.4993"
)

Pstream initialised with:
    floatTransfer      : 0
    nProcsSimpleSum    : 0
    commsType          : nonBlocking
    polling iterations : 0
sigFpe : Enabling floating point exception trapping (FOAM_SIGFPE).
fileModificationChecking : Monitoring run-time modified files using timeStampMaster (fileModificationSkew 10)
allowSystemOperations : Allowing user-supplied system call operations

// * * * * * * * * * * * * * * * * * * * * * * * * * * * * * * * * * * * * * //
Create time

Create mesh for time = 0


SIMPLE: Convergence criteria found
        p: tolerance 0.001
        U: tolerance 0.0001
        "(k|epsilon|omega|f|v2)": tolerance 0.0001

Reading field p

Reading field U

Reading/calculating face flux field phi

Selecting incompressible transport model powerLaw
Selecting turbulence model type laminar
Selecting laminar stress model Stokes
No MRF models present

No fvModels present
No fvConstraints present

Starting time loop

wallShearStress wallShearStress:
    processing all wall patches

Time = 1

smoothSolver:  Solving for Ux, Initial residual = 0.935071018747, Final residual = 0.0755596410687, No Iterations 2
smoothSolver:  Solving for Uy, Initial residual = 0.999999999999, Final residual = 0.0572562251193, No Iterations 2
smoothSolver:  Solving for Uz, Initial residual = 1, Final residual = 0.0816529803376, No Iterations 2
GAMG:  Solving for p, Initial residual = 0.999999999986, Final residual = 0.0422122097986, No Iterations 32
time step continuity errors : sum local = 0.0219270105856, global = -0.00027962141057, cumulative = -0.00027962141057
ExecutionTime = 0.11 s  ClockTime = 1 s

Time = 2

smoothSolver:  Solving for Ux, Initial residual = 0.62697165956, Final residual = 0.0621879997043, No Iterations 3
smoothSolver:  Solving for Uy, Initial residual = 0.962919475194, Final residual = 0.083936122178, No Iterations 4
smoothSolver:  Solving for Uz, Initial residual = 0.925360950303, Final residual = 0.0785686905806, No Iterations 4
GAMG:  Solving for p, Initial residual = 0.00637008362782, Final residual = 0.000203529335081, No Iterations 14
time step continuity errors : sum local = 65.3427939636, global = 0.671415246292, cumulative = 0.671135624881
ExecutionTime = 0.19 s  ClockTime = 1 s

Time = 3

smoothSolver:  Solving for Ux, Initial residual = 0.665399891643, Final residual = 0.0390143193754, No Iterations 3
smoothSolver:  Solving for Uy, Initial residual = 0.082461147426, Final residual = 0.00696215794919, No Iterations 4
smoothSolver:  Solving for Uz, Initial residual = 0.0657805849162, Final residual = 0.00557305478917, No Iterations 4
GAMG:  Solving for p, Initial residual = 0.0132427907147, Final residual = 0.000622442637071, No Iterations 14
time step continuity errors : sum local = 51.7288162937, global = 1.12396300595, cumulative = 1.79509863083
ExecutionTime = 0.25 s  ClockTime = 1 s

Time = 4

smoothSolver:  Solving for Ux, Initial residual = 0.0335913959539, Final residual = 0.00219568678515, No Iterations 3
smoothSolver:  Solving for Uy, Initial residual = 0.0573292854674, Final residual = 0.00487767349306, No Iterations 4
smoothSolver:  Solving for Uz, Initial residual = 0.0134544393293, Final residual = 0.000949659341164, No Iterations 4
GAMG:  Solving for p, Initial residual = 0.379946801444, Final residual = 0.0186639341938, No Iterations 8
time step continuity errors : sum local = 92.5286736682, global = 1.43309525708, cumulative = 3.22819388791
ExecutionTime = 0.3 s  ClockTime = 1 s

Time = 5

smoothSolver:  Solving for Ux, Initial residual = 0.0095988642554, Final residual = 0.000759711732733, No Iterations 3
smoothSolver:  Solving for Uy, Initial residual = 0.0200177629249, Final residual = 0.00157338993212, No Iterations 4
smoothSolver:  Solving for Uz, Initial residual = 0.0544070712213, Final residual = 0.00451023728306, No Iterations 4
GAMG:  Solving for p, Initial residual = 0.032182012779, Final residual = 0.00146108601472, No Iterations 7
time step continuity errors : sum local = 44.7967201236, global = -0.206602003178, cumulative = 3.02159188473
ExecutionTime = 0.38 s  ClockTime = 1 s

Time = 6

smoothSolver:  Solving for Ux, Initial residual = 0.00605936586421, Final residual = 0.000284491037053, No Iterations 3
smoothSolver:  Solving for Uy, Initial residual = 0.158784544777, Final residual = 0.0134379410097, No Iterations 4
smoothSolver:  Solving for Uz, Initial residual = 0.154621063497, Final residual = 0.0130544434358, No Iterations 4
GAMG:  Solving for p, Initial residual = 0.0205382263663, Final residual = 0.00102586192859, No Iterations 10
time step continuity errors : sum local = 23.0315105281, global = 0.497629039252, cumulative = 3.51922092398
ExecutionTime = 0.45 s  ClockTime = 1 s

Time = 7

smoothSolver:  Solving for Ux, Initial residual = 0.00606243265586, Final residual = 0.00027158797123, No Iterations 3
smoothSolver:  Solving for Uy, Initial residual = 0.246183399382, Final residual = 0.021008213062, No Iterations 4
smoothSolver:  Solving for Uz, Initial residual = 0.155489946427, Final residual = 0.0130047938824, No Iterations 4
GAMG:  Solving for p, Initial residual = 0.0627604684728, Final residual = 0.00292519808986, No Iterations 8
time step continuity errors : sum local = 37.6238959799, global = 0.597544530039, cumulative = 4.11676545402
ExecutionTime = 0.52 s  ClockTime = 1 s

Time = 8

smoothSolver:  Solving for Ux, Initial residual = 0.00587106696074, Final residual = 0.000313334286179, No Iterations 3
smoothSolver:  Solving for Uy, Initial residual = 0.0646151421172, Final residual = 0.00542514454383, No Iterations 4
smoothSolver:  Solving for Uz, Initial residual = 0.0453664160739, Final residual = 0.00368349571651, No Iterations 4
GAMG:  Solving for p, Initial residual = 0.174710513468, Final residual = 0.00666813159334, No Iterations 8
time step continuity errors : sum local = 25.8445706722, global = -0.223786356802, cumulative = 3.89297909722
ExecutionTime = 0.57 s  ClockTime = 1 s

Time = 9

smoothSolver:  Solving for Ux, Initial residual = 0.00468315068197, Final residual = 0.000301387560817, No Iterations 3
smoothSolver:  Solving for Uy, Initial residual = 0.028275126956, Final residual = 0.00226827186207, No Iterations 4
smoothSolver:  Solving for Uz, Initial residual = 0.0376401065669, Final residual = 0.00306544773111, No Iterations 4
GAMG:  Solving for p, Initial residual = 0.152790922784, Final residual = 0.00722548436127, No Iterations 6
time step continuity errors : sum local = 18.0649770612, global = 0.0521828116775, cumulative = 3.9451619089
ExecutionTime = 0.64 s  ClockTime = 1 s

Time = 10

smoothSolver:  Solving for Ux, Initial residual = 0.00321289918417, Final residual = 0.000260936255468, No Iterations 3
smoothSolver:  Solving for Uy, Initial residual = 0.106448084336, Final residual = 0.00902919235994, No Iterations 4
smoothSolver:  Solving for Uz, Initial residual = 0.101670797144, Final residual = 0.0086175910658, No Iterations 4
GAMG:  Solving for p, Initial residual = 0.038382045762, Final residual = 0.000965026246499, No Iterations 8
time step continuity errors : sum local = 4.94186649229, global = 0.0763424942437, cumulative = 4.02150440314
ExecutionTime = 0.71 s  ClockTime = 1 s

Time = 11

smoothSolver:  Solving for Ux, Initial residual = 0.00228713132195, Final residual = 0.000201433969752, No Iterations 3
smoothSolver:  Solving for Uy, Initial residual = 0.409437052058, Final residual = 0.0351791332965, No Iterations 4
smoothSolver:  Solving for Uz, Initial residual = 0.144190459226, Final residual = 0.0123363042379, No Iterations 4
GAMG:  Solving for p, Initial residual = 0.0406059195462, Final residual = 0.00160451694503, No Iterations 8
time step continuity errors : sum local = 8.52979368312, global = 0.0921216371359, cumulative = 4.11362604028
ExecutionTime = 0.79 s  ClockTime = 1 s

Time = 12

smoothSolver:  Solving for Ux, Initial residual = 0.00182456563283, Final residual = 0.000159548440234, No Iterations 3
smoothSolver:  Solving for Uy, Initial residual = 0.087764989562, Final residual = 0.0074534361882, No Iterations 4
smoothSolver:  Solving for Uz, Initial residual = 0.0585237860718, Final residual = 0.00501338784001, No Iterations 4
GAMG:  Solving for p, Initial residual = 0.0709773969962, Final residual = 0.00303919949674, No Iterations 8
time step continuity errors : sum local = 8.9800849413, global = 0.0602437301999, cumulative = 4.17386977048
ExecutionTime = 0.86 s  ClockTime = 1 s

Time = 13

smoothSolver:  Solving for Ux, Initial residual = 0.0014819523276, Final residual = 0.000140800737745, No Iterations 3
smoothSolver:  Solving for Uy, Initial residual = 0.0344384874658, Final residual = 0.00284322946608, No Iterations 4
smoothSolver:  Solving for Uz, Initial residual = 0.0310116275035, Final residual = 0.00262152459512, No Iterations 4
GAMG:  Solving for p, Initial residual = 0.279632015423, Final residual = 0.0136757481512, No Iterations 8
time step continuity errors : sum local = 7.78295258233, global = -0.00746491262442, cumulative = 4.16640485785
ExecutionTime = 0.93 s  ClockTime = 1 s

Time = 14

smoothSolver:  Solving for Ux, Initial residual = 0.00144893495704, Final residual = 0.000140986595099, No Iterations 3
smoothSolver:  Solving for Uy, Initial residual = 0.0457808499838, Final residual = 0.00383194537963, No Iterations 4
smoothSolver:  Solving for Uz, Initial residual = 0.02977195932, Final residual = 0.00250788018817, No Iterations 4
GAMG:  Solving for p, Initial residual = 0.0712729054112, Final residual = 0.00202832744283, No Iterations 6
time step continuity errors : sum local = 3.16046672836, global = -0.0142919988597, cumulative = 4.15211285899
ExecutionTime = 1 s  ClockTime = 1 s

Time = 15

smoothSolver:  Solving for Ux, Initial residual = 0.00154527243923, Final residual = 0.00015000178451, No Iterations 3
smoothSolver:  Solving for Uy, Initial residual = 0.100754097292, Final residual = 0.00845870493532, No Iterations 4
smoothSolver:  Solving for Uz, Initial residual = 0.042611108894, Final residual = 0.00357264511216, No Iterations 4
GAMG:  Solving for p, Initial residual = 0.0614023640531, Final residual = 0.00192914886854, No Iterations 6
time step continuity errors : sum local = 3.04500472121, global = -0.023288914794, cumulative = 4.1288239442
ExecutionTime = 1.06 s  ClockTime = 2 s

Time = 16

smoothSolver:  Solving for Ux, Initial residual = 0.00166231951692, Final residual = 0.000158571508277, No Iterations 3
smoothSolver:  Solving for Uy, Initial residual = 0.175858952489, Final residual = 0.0145080084482, No Iterations 4
smoothSolver:  Solving for Uz, Initial residual = 0.0460616099536, Final residual = 0.00382646768908, No Iterations 4
GAMG:  Solving for p, Initial residual = 0.0757422048467, Final residual = 0.00313968765877, No Iterations 6
time step continuity errors : sum local = 3.95219325011, global = 0.00384716528377, cumulative = 4.13267110948
ExecutionTime = 1.13 s  ClockTime = 2 s

Time = 17

smoothSolver:  Solving for Ux, Initial residual = 0.001695248575, Final residual = 0.000161272851343, No Iterations 3
smoothSolver:  Solving for Uy, Initial residual = 0.0805601470369, Final residual = 0.00640159456877, No Iterations 4
smoothSolver:  Solving for Uz, Initial residual = 0.0327259752437, Final residual = 0.00266746820249, No Iterations 4
GAMG:  Solving for p, Initial residual = 0.168911879423, Final residual = 0.00641185382599, No Iterations 6
time step continuity errors : sum local = 3.32454214255, global = -0.0215822026299, cumulative = 4.11108890685
ExecutionTime = 1.2 s  ClockTime = 2 s

Time = 18

smoothSolver:  Solving for Ux, Initial residual = 0.00146920257524, Final residual = 7.68528481327e-05, No Iterations 4
smoothSolver:  Solving for Uy, Initial residual = 0.0607043925267, Final residual = 0.00483901797445, No Iterations 4
smoothSolver:  Solving for Uz, Initial residual = 0.0297704387168, Final residual = 0.00241854545608, No Iterations 4
GAMG:  Solving for p, Initial residual = 0.159598675857, Final residual = 0.00463225522427, No Iterations 6
time step continuity errors : sum local = 2.0160119694, global = -0.00952480070848, cumulative = 4.10156410614
ExecutionTime = 1.27 s  ClockTime = 2 s

Time = 19

smoothSolver:  Solving for Ux, Initial residual = 0.00125733833777, Final residual = 7.10012754129e-05, No Iterations 4
smoothSolver:  Solving for Uy, Initial residual = 0.0927784240472, Final residual = 0.00770328329251, No Iterations 4
smoothSolver:  Solving for Uz, Initial residual = 0.0333468983541, Final residual = 0.00276752076016, No Iterations 4
GAMG:  Solving for p, Initial residual = 0.0869685366405, Final residual = 0.00358797778023, No Iterations 5
time step continuity errors : sum local = 2.27111034745, global = 0.00268295530325, cumulative = 4.10424706145
ExecutionTime = 1.33 s  ClockTime = 2 s

Time = 20

smoothSolver:  Solving for Ux, Initial residual = 0.00106884787306, Final residual = 6.59667544613e-05, No Iterations 4
smoothSolver:  Solving for Uy, Initial residual = 0.0626469842027, Final residual = 0.00528630110171, No Iterations 4
smoothSolver:  Solving for Uz, Initial residual = 0.0340739782094, Final residual = 0.00289004673047, No Iterations 4
GAMG:  Solving for p, Initial residual = 0.0713829041247, Final residual = 0.00268904760886, No Iterations 5
time step continuity errors : sum local = 1.70254879429, global = 0.00874144424683, cumulative = 4.11298850569
ExecutionTime = 1.4 s  ClockTime = 2 s

Time = 21

smoothSolver:  Solving for Ux, Initial residual = 0.000967309668869, Final residual = 6.19597560575e-05, No Iterations 4
smoothSolver:  Solving for Uy, Initial residual = 0.041421074399, Final residual = 0.00344676458799, No Iterations 4
smoothSolver:  Solving for Uz, Initial residual = 0.0297205689811, Final residual = 0.00254002243173, No Iterations 4
GAMG:  Solving for p, Initial residual = 0.0653708524296, Final residual = 0.00204120220561, No Iterations 6
time step continuity errors : sum local = 1.20163700412, global = 0.00365783070833, cumulative = 4.1166463364
ExecutionTime = 1.45 s  ClockTime = 2 s

Time = 22

smoothSolver:  Solving for Ux, Initial residual = 0.000903023446401, Final residual = 5.88205842679e-05, No Iterations 4
smoothSolver:  Solving for Uy, Initial residual = 0.0332644360195, Final residual = 0.00274976096819, No Iterations 4
smoothSolver:  Solving for Uz, Initial residual = 0.0240533831571, Final residual = 0.00204268717581, No Iterations 4
GAMG:  Solving for p, Initial residual = 0.085740531188, Final residual = 0.0027573764524, No Iterations 6
time step continuity errors : sum local = 1.06091437005, global = 0.00369495266801, cumulative = 4.12034128907
ExecutionTime = 1.53 s  ClockTime = 2 s

Time = 23

smoothSolver:  Solving for Ux, Initial residual = 0.000853351118885, Final residual = 5.66954503339e-05, No Iterations 4
smoothSolver:  Solving for Uy, Initial residual = 0.0279472336327, Final residual = 0.0023012846864, No Iterations 4
smoothSolver:  Solving for Uz, Initial residual = 0.0212806106806, Final residual = 0.00180160283011, No Iterations 4
GAMG:  Solving for p, Initial residual = 0.115166723897, Final residual = 0.00266419411469, No Iterations 6
time step continuity errors : sum local = 0.62236845975, global = 0.000463920192587, cumulative = 4.12080520926
ExecutionTime = 1.6 s  ClockTime = 2 s

Time = 24

smoothSolver:  Solving for Ux, Initial residual = 0.000822616470542, Final residual = 5.54289926614e-05, No Iterations 4
smoothSolver:  Solving for Uy, Initial residual = 0.027761031774, Final residual = 0.00228921701258, No Iterations 4
smoothSolver:  Solving for Uz, Initial residual = 0.0202987822686, Final residual = 0.00172235931003, No Iterations 4
GAMG:  Solving for p, Initial residual = 0.146110555808, Final residual = 0.00522592074688, No Iterations 5
time step continuity errors : sum local = 0.809815020878, global = 0.00119705845257, cumulative = 4.12200226772
ExecutionTime = 1.67 s  ClockTime = 2 s

Time = 25

smoothSolver:  Solving for Ux, Initial residual = 0.000797885874205, Final residual = 5.42511991076e-05, No Iterations 4
smoothSolver:  Solving for Uy, Initial residual = 0.0265642900914, Final residual = 0.00216277338733, No Iterations 4
smoothSolver:  Solving for Uz, Initial residual = 0.0194477583739, Final residual = 0.00165192945923, No Iterations 4
GAMG:  Solving for p, Initial residual = 0.158088588729, Final residual = 0.00489444560924, No Iterations 5
time step continuity errors : sum local = 0.672576132906, global = -0.00121871693072, cumulative = 4.12078355078
ExecutionTime = 1.73 s  ClockTime = 2 s

Time = 26

smoothSolver:  Solving for Ux, Initial residual = 0.000781064588616, Final residual = 5.3747246682e-05, No Iterations 4
smoothSolver:  Solving for Uy, Initial residual = 0.0222538955951, Final residual = 0.0017886540683, No Iterations 4
smoothSolver:  Solving for Uz, Initial residual = 0.0178320790046, Final residual = 0.00150009728244, No Iterations 4
GAMG:  Solving for p, Initial residual = 0.157349021104, Final residual = 0.0077931982588, No Iterations 4
time step continuity errors : sum local = 1.04689972788, global = -0.00966665169429, cumulative = 4.11111689909
ExecutionTime = 1.8 s  ClockTime = 2 s

Time = 27

smoothSolver:  Solving for Ux, Initial residual = 0.000770800460877, Final residual = 5.37856891501e-05, No Iterations 4
smoothSolver:  Solving for Uy, Initial residual = 0.0179077568493, Final residual = 0.001412601322, No Iterations 4
smoothSolver:  Solving for Uz, Initial residual = 0.0158971966884, Final residual = 0.00132100575465, No Iterations 4
GAMG:  Solving for p, Initial residual = 0.140535035436, Final residual = 0.00394764987119, No Iterations 6
time step continuity errors : sum local = 0.56427278421, global = 0.000516075973676, cumulative = 4.11163297506
ExecutionTime = 1.85 s  ClockTime = 2 s

Time = 28

smoothSolver:  Solving for Ux, Initial residual = 0.000744941415637, Final residual = 5.2603387516e-05, No Iterations 4
smoothSolver:  Solving for Uy, Initial residual = 0.0164574299767, Final residual = 0.00130028595228, No Iterations 4
smoothSolver:  Solving for Uz, Initial residual = 0.0147024508525, Final residual = 0.00121290621899, No Iterations 4
GAMG:  Solving for p, Initial residual = 0.0969687338395, Final residual = 0.00266402228403, No Iterations 5
time step continuity errors : sum local = 0.505273062832, global = -0.00218575057221, cumulative = 4.10944722449
ExecutionTime = 1.93 s  ClockTime = 2 s

Time = 29

smoothSolver:  Solving for Ux, Initial residual = 0.000710570715672, Final residual = 5.08899531927e-05, No Iterations 4
smoothSolver:  Solving for Uy, Initial residual = 0.0156100046425, Final residual = 0.00125726741255, No Iterations 4
smoothSolver:  Solving for Uz, Initial residual = 0.0136842184042, Final residual = 0.00113588887628, No Iterations 4
GAMG:  Solving for p, Initial residual = 0.0791934354033, Final residual = 0.0034859515915, No Iterations 5
time step continuity errors : sum local = 0.682318920047, global = -0.000156400195547, cumulative = 4.1092908243
ExecutionTime = 1.99 s  ClockTime = 2 s

Time = 30

smoothSolver:  Solving for Ux, Initial residual = 0.00067470806408, Final residual = 4.89287232593e-05, No Iterations 4
smoothSolver:  Solving for Uy, Initial residual = 0.0147237068138, Final residual = 0.00118644610037, No Iterations 4
smoothSolver:  Solving for Uz, Initial residual = 0.0139428172659, Final residual = 0.00118741548936, No Iterations 4
GAMG:  Solving for p, Initial residual = 0.0666877456651, Final residual = 0.0028136243507, No Iterations 4
time step continuity errors : sum local = 0.553288188778, global = 0.000885836958299, cumulative = 4.11017666125
ExecutionTime = 2.04 s  ClockTime = 3 s

Time = 31

smoothSolver:  Solving for Ux, Initial residual = 0.000646224475553, Final residual = 4.7353700214e-05, No Iterations 4
smoothSolver:  Solving for Uy, Initial residual = 0.0137303229531, Final residual = 0.00110801874245, No Iterations 4
smoothSolver:  Solving for Uz, Initial residual = 0.0142098640233, Final residual = 0.00122096080488, No Iterations 4
GAMG:  Solving for p, Initial residual = 0.0567203410146, Final residual = 0.00101842601669, No Iterations 5
time step continuity errors : sum local = 0.197322130748, global = 0.000905381266661, cumulative = 4.11108204252
ExecutionTime = 2.12 s  ClockTime = 3 s

Time = 32

smoothSolver:  Solving for Ux, Initial residual = 0.00062845602939, Final residual = 4.64177681494e-05, No Iterations 4
smoothSolver:  Solving for Uy, Initial residual = 0.0131538560027, Final residual = 0.00106601165008, No Iterations 4
smoothSolver:  Solving for Uz, Initial residual = 0.0140215230589, Final residual = 0.00120859194888, No Iterations 4
GAMG:  Solving for p, Initial residual = 0.0529121429378, Final residual = 0.00247638837095, No Iterations 4
time step continuity errors : sum local = 0.438295830719, global = 0.00446936808092, cumulative = 4.1155514106
ExecutionTime = 2.18 s  ClockTime = 3 s

Time = 33

smoothSolver:  Solving for Ux, Initial residual = 0.000613047646474, Final residual = 4.56828443957e-05, No Iterations 4
smoothSolver:  Solving for Uy, Initial residual = 0.0126084102625, Final residual = 0.00103113401584, No Iterations 4
smoothSolver:  Solving for Uz, Initial residual = 0.0134205093571, Final residual = 0.00115856153738, No Iterations 4
GAMG:  Solving for p, Initial residual = 0.0501282414301, Final residual = 0.00244040889993, No Iterations 5
time step continuity errors : sum local = 0.397629564973, global = 0.00113752435356, cumulative = 4.11668893496
ExecutionTime = 2.25 s  ClockTime = 3 s

Time = 34

smoothSolver:  Solving for Ux, Initial residual = 0.00060049115679, Final residual = 4.50911859684e-05, No Iterations 4
smoothSolver:  Solving for Uy, Initial residual = 0.0122581579652, Final residual = 0.00100699087262, No Iterations 4
smoothSolver:  Solving for Uz, Initial residual = 0.0123638503102, Final residual = 0.00106496810036, No Iterations 4
GAMG:  Solving for p, Initial residual = 0.0515532756374, Final residual = 0.00147736731688, No Iterations 5
time step continuity errors : sum local = 0.212440737387, global = 0.00225229612774, cumulative = 4.11894123108
ExecutionTime = 2.31 s  ClockTime = 3 s

Time = 35

smoothSolver:  Solving for Ux, Initial residual = 0.000590431163874, Final residual = 4.4517251544e-05, No Iterations 4
smoothSolver:  Solving for Uy, Initial residual = 0.011476746385, Final residual = 0.000932046905717, No Iterations 4
smoothSolver:  Solving for Uz, Initial residual = 0.0111855866543, Final residual = 0.000957854749519, No Iterations 4
GAMG:  Solving for p, Initial residual = 0.0529134714425, Final residual = 0.00140334240712, No Iterations 5
time step continuity errors : sum local = 0.187276962507, global = 0.00199835115453, cumulative = 4.12093958224
ExecutionTime = 2.37 s  ClockTime = 3 s

Time = 36

smoothSolver:  Solving for Ux, Initial residual = 0.00058046189057, Final residual = 4.39746729887e-05, No Iterations 4
smoothSolver:  Solving for Uy, Initial residual = 0.0104198003818, Final residual = 0.000837372592868, No Iterations 4
smoothSolver:  Solving for Uz, Initial residual = 0.00993966645335, Final residual = 0.000841436602974, No Iterations 4
GAMG:  Solving for p, Initial residual = 0.0556408021601, Final residual = 0.0017970540441, No Iterations 5
time step continuity errors : sum local = 0.224306373399, global = 0.00189182110753, cumulative = 4.12283140335
ExecutionTime = 2.44 s  ClockTime = 3 s

Time = 37

smoothSolver:  Solving for Ux, Initial residual = 0.000570547128123, Final residual = 4.34779852331e-05, No Iterations 4
smoothSolver:  Solving for Uy, Initial residual = 0.0091738910125, Final residual = 0.000722412660803, No Iterations 4
smoothSolver:  Solving for Uz, Initial residual = 0.00884573846734, Final residual = 0.000740443515946, No Iterations 4
GAMG:  Solving for p, Initial residual = 0.0561677353284, Final residual = 0.00266347512945, No Iterations 4
time step continuity errors : sum local = 0.318264527634, global = 0.000532768123422, cumulative = 4.12336417147
ExecutionTime = 2.5 s  ClockTime = 3 s

Time = 38

smoothSolver:  Solving for Ux, Initial residual = 0.00056132338483, Final residual = 4.29892416423e-05, No Iterations 4
smoothSolver:  Solving for Uy, Initial residual = 0.00821215247735, Final residual = 0.00063466525967, No Iterations 4
smoothSolver:  Solving for Uz, Initial residual = 0.00811077412306, Final residual = 0.000675212075255, No Iterations 4
GAMG:  Solving for p, Initial residual = 0.0539369227828, Final residual = 0.00204968656488, No Iterations 5
time step continuity errors : sum local = 0.236973184108, global = 1.25170531882e-05, cumulative = 4.12337668852
ExecutionTime = 2.57 s  ClockTime = 3 s

Time = 39

smoothSolver:  Solving for Ux, Initial residual = 0.000552982552019, Final residual = 4.25131535487e-05, No Iterations 4
smoothSolver:  Solving for Uy, Initial residual = 0.00748965489593, Final residual = 0.000577868396914, No Iterations 4
smoothSolver:  Solving for Uz, Initial residual = 0.00800375413477, Final residual = 0.000673697636058, No Iterations 4
GAMG:  Solving for p, Initial residual = 0.0491351248717, Final residual = 0.00136680383164, No Iterations 5
time step continuity errors : sum local = 0.155307697544, global = -0.000526713863277, cumulative = 4.12284997466
ExecutionTime = 2.63 s  ClockTime = 3 s

Time = 40

smoothSolver:  Solving for Ux, Initial residual = 0.000542827308315, Final residual = 4.19603055753e-05, No Iterations 4
smoothSolver:  Solving for Uy, Initial residual = 0.00739169632278, Final residual = 0.000583324207381, No Iterations 4
smoothSolver:  Solving for Uz, Initial residual = 0.00831420323221, Final residual = 0.000711756806627, No Iterations 4
GAMG:  Solving for p, Initial residual = 0.0426123464728, Final residual = 0.00119599558499, No Iterations 5
time step continuity errors : sum local = 0.136323055793, global = -0.00182704793161, cumulative = 4.12102292673
ExecutionTime = 2.7 s  ClockTime = 3 s

Time = 41

smoothSolver:  Solving for Ux, Initial residual = 0.000531616703, Final residual = 4.13167948697e-05, No Iterations 4
smoothSolver:  Solving for Uy, Initial residual = 0.00740491482621, Final residual = 0.000596477593696, No Iterations 4
smoothSolver:  Solving for Uz, Initial residual = 0.00842923678178, Final residual = 0.000725036766524, No Iterations 4
GAMG:  Solving for p, Initial residual = 0.0359023674449, Final residual = 0.00136566187565, No Iterations 4
time step continuity errors : sum local = 0.157574681345, global = -0.00130279426057, cumulative = 4.11972013247
ExecutionTime = 2.76 s  ClockTime = 3 s

Time = 42

smoothSolver:  Solving for Ux, Initial residual = 0.000521632014994, Final residual = 4.07338524885e-05, No Iterations 4
smoothSolver:  Solving for Uy, Initial residual = 0.00731471858811, Final residual = 0.000600132148621, No Iterations 4
smoothSolver:  Solving for Uz, Initial residual = 0.00824816979643, Final residual = 0.000709248868392, No Iterations 4
GAMG:  Solving for p, Initial residual = 0.0311647289478, Final residual = 0.00132663332337, No Iterations 4
time step continuity errors : sum local = 0.151582697691, global = -0.0010209553494, cumulative = 4.11869917712
ExecutionTime = 2.83 s  ClockTime = 3 s

Time = 43

smoothSolver:  Solving for Ux, Initial residual = 0.000512710087501, Final residual = 4.02027503433e-05, No Iterations 4
smoothSolver:  Solving for Uy, Initial residual = 0.00686732295289, Final residual = 0.00056515987691, No Iterations 4
smoothSolver:  Solving for Uz, Initial residual = 0.00785792206036, Final residual = 0.000676223599716, No Iterations 4
GAMG:  Solving for p, Initial residual = 0.0283991635227, Final residual = 0.00100693272462, No Iterations 5
time step continuity errors : sum local = 0.11341978919, global = 0.000224088416867, cumulative = 4.11892326553
ExecutionTime = 2.89 s  ClockTime = 3 s

Time = 44

smoothSolver:  Solving for Ux, Initial residual = 0.00050404612527, Final residual = 3.97228947832e-05, No Iterations 4
smoothSolver:  Solving for Uy, Initial residual = 0.00633075326097, Final residual = 0.000518000715646, No Iterations 4
smoothSolver:  Solving for Uz, Initial residual = 0.00736961233939, Final residual = 0.000633193566155, No Iterations 4
GAMG:  Solving for p, Initial residual = 0.0277650659667, Final residual = 0.000821076508776, No Iterations 5
time step continuity errors : sum local = 0.0908867005627, global = 8.42662115386e-05, cumulative = 4.11900753175
ExecutionTime = 2.96 s  ClockTime = 3 s

Time = 45

smoothSolver:  Solving for Ux, Initial residual = 0.000495509104152, Final residual = 3.92074905599e-05, No Iterations 4
smoothSolver:  Solving for Uy, Initial residual = 0.00568517907605, Final residual = 0.000460448036367, No Iterations 4
smoothSolver:  Solving for Uz, Initial residual = 0.00678480231837, Final residual = 0.000581872732875, No Iterations 4
GAMG:  Solving for p, Initial residual = 0.0289356580283, Final residual = 0.00101213189598, No Iterations 5
time step continuity errors : sum local = 0.107259238753, global = 0.000281902380711, cumulative = 4.11928943413
ExecutionTime = 3.02 s  ClockTime = 3 s

Time = 46

smoothSolver:  Solving for Ux, Initial residual = 0.000486958390479, Final residual = 3.86185672257e-05, No Iterations 4
smoothSolver:  Solving for Uy, Initial residual = 0.00497967959822, Final residual = 0.000397930164568, No Iterations 4
smoothSolver:  Solving for Uz, Initial residual = 0.00625668158362, Final residual = 0.000534555703086, No Iterations 4
GAMG:  Solving for p, Initial residual = 0.0299536795677, Final residual = 0.00101008106383, No Iterations 5
time step continuity errors : sum local = 0.101443013348, global = 0.000456172775804, cumulative = 4.1197456069
ExecutionTime = 3.09 s  ClockTime = 4 s

Time = 47

smoothSolver:  Solving for Ux, Initial residual = 0.000479369659242, Final residual = 3.80801572063e-05, No Iterations 4
smoothSolver:  Solving for Uy, Initial residual = 0.00459725360881, Final residual = 0.000365440025792, No Iterations 4
smoothSolver:  Solving for Uz, Initial residual = 0.00584333778623, Final residual = 0.00049889806397, No Iterations 4
GAMG:  Solving for p, Initial residual = 0.0289146380208, Final residual = 0.000870705792188, No Iterations 5
time step continuity errors : sum local = 0.084229012038, global = 0.000397728083804, cumulative = 4.12014333499
ExecutionTime = 3.16 s  ClockTime = 4 s

Time = 48

smoothSolver:  Solving for Ux, Initial residual = 0.000472730282734, Final residual = 3.75906740876e-05, No Iterations 4
smoothSolver:  Solving for Uy, Initial residual = 0.0042439817666, Final residual = 0.000334052361538, No Iterations 4
smoothSolver:  Solving for Uz, Initial residual = 0.00567255235899, Final residual = 0.000486199908888, No Iterations 4
GAMG:  Solving for p, Initial residual = 0.0277269765267, Final residual = 0.000823404118134, No Iterations 5
time step continuity errors : sum local = 0.0761854670701, global = 0.000493819062763, cumulative = 4.12063715405
ExecutionTime = 3.21 s  ClockTime = 4 s

Time = 49

smoothSolver:  Solving for Ux, Initial residual = 0.000466621320329, Final residual = 3.71582979198e-05, No Iterations 4
smoothSolver:  Solving for Uy, Initial residual = 0.00434585425384, Final residual = 0.000350282512971, No Iterations 4
smoothSolver:  Solving for Uz, Initial residual = 0.00562998839485, Final residual = 0.000486849182229, No Iterations 4
GAMG:  Solving for p, Initial residual = 0.0250879095894, Final residual = 0.00070975589212, No Iterations 5
time step continuity errors : sum local = 0.0639940677792, global = 0.000237849506269, cumulative = 4.12087500356
ExecutionTime = 3.28 s  ClockTime = 4 s

Time = 50

smoothSolver:  Solving for Ux, Initial residual = 0.000460521840895, Final residual = 3.67394531435e-05, No Iterations 4
smoothSolver:  Solving for Uy, Initial residual = 0.00443142273882, Final residual = 0.000361366897866, No Iterations 4
smoothSolver:  Solving for Uz, Initial residual = 0.00563535505671, Final residual = 0.00049052580289, No Iterations 4
GAMG:  Solving for p, Initial residual = 0.0223732818876, Final residual = 0.000522881727596, No Iterations 5
time step continuity errors : sum local = 0.045855299316, global = 0.000237998997414, cumulative = 4.12111300255
ExecutionTime = 3.36 s  ClockTime = 4 s

Time = 51

smoothSolver:  Solving for Ux, Initial residual = 0.000454496318291, Final residual = 3.62946565533e-05, No Iterations 4
smoothSolver:  Solving for Uy, Initial residual = 0.00468697454324, Final residual = 0.000387516054308, No Iterations 4
smoothSolver:  Solving for Uz, Initial residual = 0.00555891096844, Final residual = 0.000484776574889, No Iterations 4
GAMG:  Solving for p, Initial residual = 0.0195531479313, Final residual = 0.00090456301096, No Iterations 4
time step continuity errors : sum local = 0.077976451811, global = -2.02451254452e-05, cumulative = 4.12109275743
ExecutionTime = 3.43 s  ClockTime = 4 s

Time = 52

smoothSolver:  Solving for Ux, Initial residual = 0.000447073310612, Final residual = 3.58020081356e-05, No Iterations 4
smoothSolver:  Solving for Uy, Initial residual = 0.00463896988983, Final residual = 0.000384006255269, No Iterations 4
smoothSolver:  Solving for Uz, Initial residual = 0.00541180016737, Final residual = 0.000472432868415, No Iterations 4
GAMG:  Solving for p, Initial residual = 0.0176357204315, Final residual = 0.000327566931482, No Iterations 5
time step continuity errors : sum local = 0.0278303743992, global = 0.000135454819498, cumulative = 4.12122821225
ExecutionTime = 3.48 s  ClockTime = 4 s

Time = 53

smoothSolver:  Solving for Ux, Initial residual = 0.000439450739709, Final residual = 3.53612136904e-05, No Iterations 4
smoothSolver:  Solving for Uy, Initial residual = 0.00439411776256, Final residual = 0.000363379794862, No Iterations 4
smoothSolver:  Solving for Uz, Initial residual = 0.00519705065156, Final residual = 0.00045385554128, No Iterations 4
GAMG:  Solving for p, Initial residual = 0.0170005694048, Final residual = 0.000427454219195, No Iterations 5
time step continuity errors : sum local = 0.0357432922951, global = 0.000247197571205, cumulative = 4.12147540982
ExecutionTime = 3.56 s  ClockTime = 4 s

Time = 54

smoothSolver:  Solving for Ux, Initial residual = 0.000432664835657, Final residual = 3.49344128394e-05, No Iterations 4
smoothSolver:  Solving for Uy, Initial residual = 0.00405232037217, Final residual = 0.000333713489984, No Iterations 4
smoothSolver:  Solving for Uz, Initial residual = 0.00494839028774, Final residual = 0.000432026405343, No Iterations 4
GAMG:  Solving for p, Initial residual = 0.0169132689766, Final residual = 0.000394781165387, No Iterations 5
time step continuity errors : sum local = 0.0324624577514, global = 0.000156263922387, cumulative = 4.12163167374
ExecutionTime = 3.61 s  ClockTime = 4 s

Time = 55

smoothSolver:  Solving for Ux, Initial residual = 0.000426478240297, Final residual = 3.44987347765e-05, No Iterations 4
smoothSolver:  Solving for Uy, Initial residual = 0.00364099428541, Final residual = 0.000297281533015, No Iterations 4
smoothSolver:  Solving for Uz, Initial residual = 0.00470218477823, Final residual = 0.000410156342643, No Iterations 4
GAMG:  Solving for p, Initial residual = 0.0165779355196, Final residual = 0.000471721153607, No Iterations 5
time step continuity errors : sum local = 0.0381557015028, global = 0.000356081355624, cumulative = 4.1219877551
ExecutionTime = 3.69 s  ClockTime = 4 s

Time = 56

smoothSolver:  Solving for Ux, Initial residual = 0.000420782662044, Final residual = 3.40747557217e-05, No Iterations 4
smoothSolver:  Solving for Uy, Initial residual = 0.00331150329261, Final residual = 0.000269284580391, No Iterations 4
smoothSolver:  Solving for Uz, Initial residual = 0.0044745677893, Final residual = 0.000389738953606, No Iterations 4
GAMG:  Solving for p, Initial residual = 0.0160146435134, Final residual = 0.000486704110747, No Iterations 5
time step continuity errors : sum local = 0.0386653843696, global = 0.00021302788943, cumulative = 4.12220078299
ExecutionTime = 3.74 s  ClockTime = 4 s

Time = 57

smoothSolver:  Solving for Ux, Initial residual = 0.000415230850629, Final residual = 3.36641877307e-05, No Iterations 4
smoothSolver:  Solving for Uy, Initial residual = 0.00303787998666, Final residual = 0.00024640647139, No Iterations 4
smoothSolver:  Solving for Uz, Initial residual = 0.00431953454106, Final residual = 0.00037646315821, No Iterations 4
GAMG:  Solving for p, Initial residual = 0.0150949084644, Final residual = 0.000435812476916, No Iterations 5
time step continuity errors : sum local = 0.0339847113197, global = 0.000147353211279, cumulative = 4.1223481362
ExecutionTime = 3.82 s  ClockTime = 4 s

Time = 58

smoothSolver:  Solving for Ux, Initial residual = 0.000410304685416, Final residual = 3.32946504214e-05, No Iterations 4
smoothSolver:  Solving for Uy, Initial residual = 0.00295057337842, Final residual = 0.000240924758647, No Iterations 4
smoothSolver:  Solving for Uz, Initial residual = 0.00428349261777, Final residual = 0.000374148290453, No Iterations 4
GAMG:  Solving for p, Initial residual = 0.0138645124354, Final residual = 0.000349424046686, No Iterations 5
time step continuity errors : sum local = 0.026681325064, global = 0.000142659614799, cumulative = 4.12249079581
ExecutionTime = 3.87 s  ClockTime = 4 s

Time = 59

smoothSolver:  Solving for Ux, Initial residual = 0.000405074132229, Final residual = 3.28984593969e-05, No Iterations 4
smoothSolver:  Solving for Uy, Initial residual = 0.00294460032242, Final residual = 0.000245745597801, No Iterations 4
smoothSolver:  Solving for Uz, Initial residual = 0.00428620513732, Final residual = 0.000374907951169, No Iterations 4
GAMG:  Solving for p, Initial residual = 0.0123570147274, Final residual = 0.00032943664127, No Iterations 5
time step continuity errors : sum local = 0.0247166344187, global = 6.41683293912e-05, cumulative = 4.12255496414
ExecutionTime = 3.94 s  ClockTime = 4 s

Time = 60

smoothSolver:  Solving for Ux, Initial residual = 0.000399856120214, Final residual = 3.25058249368e-05, No Iterations 4
smoothSolver:  Solving for Uy, Initial residual = 0.00298483595861, Final residual = 0.000252177256039, No Iterations 4
smoothSolver:  Solving for Uz, Initial residual = 0.00425259396861, Final residual = 0.00037284028022, No Iterations 4
GAMG:  Solving for p, Initial residual = 0.0110500172058, Final residual = 0.000183304046833, No Iterations 5
time step continuity errors : sum local = 0.0134991153274, global = 1.02854405569e-06, cumulative = 4.12255599268
ExecutionTime = 4.01 s  ClockTime = 4 s

Time = 61

smoothSolver:  Solving for Ux, Initial residual = 0.000394441029485, Final residual = 3.20991051545e-05, No Iterations 4
smoothSolver:  Solving for Uy, Initial residual = 0.00295495612832, Final residual = 0.000250056366946, No Iterations 4
smoothSolver:  Solving for Uz, Initial residual = 0.00417499337456, Final residual = 0.000366489679721, No Iterations 4
GAMG:  Solving for p, Initial residual = 0.0100408990552, Final residual = 0.000283437452115, No Iterations 5
time step continuity errors : sum local = 0.0205150286925, global = 2.27321729221e-05, cumulative = 4.12257872486
ExecutionTime = 4.09 s  ClockTime = 5 s

Time = 62

smoothSolver:  Solving for Ux, Initial residual = 0.000389146647849, Final residual = 3.16944751158e-05, No Iterations 4
smoothSolver:  Solving for Uy, Initial residual = 0.00286320270552, Final residual = 0.00024117166599, No Iterations 4
smoothSolver:  Solving for Uz, Initial residual = 0.00405864804472, Final residual = 0.000356612123133, No Iterations 4
GAMG:  Solving for p, Initial residual = 0.0094395888594, Final residual = 0.000308689146242, No Iterations 5
time step continuity errors : sum local = 0.0220004058817, global = 3.70943018383e-05, cumulative = 4.12261581916
ExecutionTime = 4.15 s  ClockTime = 5 s

Time = 63

smoothSolver:  Solving for Ux, Initial residual = 0.000383838687142, Final residual = 3.12887953545e-05, No Iterations 4
smoothSolver:  Solving for Uy, Initial residual = 0.00275119958246, Final residual = 0.000231564295333, No Iterations 4
smoothSolver:  Solving for Uz, Initial residual = 0.00392142145074, Final residual = 0.000344774926252, No Iterations 4
GAMG:  Solving for p, Initial residual = 0.00923416901759, Final residual = 0.000259709774737, No Iterations 5
time step continuity errors : sum local = 0.0182278233604, global = 3.57238815318e-05, cumulative = 4.12265154304
ExecutionTime = 4.22 s  ClockTime = 5 s

Time = 64

smoothSolver:  Solving for Ux, Initial residual = 0.000379080457935, Final residual = 3.08955066441e-05, No Iterations 4
smoothSolver:  Solving for Uy, Initial residual = 0.00263270551992, Final residual = 0.000221239946785, No Iterations 4
smoothSolver:  Solving for Uz, Initial residual = 0.00377962790369, Final residual = 0.0003324949561, No Iterations 4
GAMG:  Solving for p, Initial residual = 0.00911433191174, Final residual = 0.000287410165761, No Iterations 5
time step continuity errors : sum local = 0.0198842447535, global = 5.92792896067e-05, cumulative = 4.12271082233
ExecutionTime = 4.27 s  ClockTime = 5 s

Time = 65

smoothSolver:  Solving for Ux, Initial residual = 0.000375133724219, Final residual = 3.0507895276e-05, No Iterations 4
smoothSolver:  Solving for Uy, Initial residual = 0.00251052449115, Final residual = 0.000210503511322, No Iterations 4
smoothSolver:  Solving for Uz, Initial residual = 0.00365161500567, Final residual = 0.000321488368376, No Iterations 4
GAMG:  Solving for p, Initial residual = 0.00899214451763, Final residual = 0.000273756300788, No Iterations 5
time step continuity errors : sum local = 0.0186195796612, global = 7.10161398528e-05, cumulative = 4.12278183847
ExecutionTime = 4.34 s  ClockTime = 5 s

Time = 66

smoothSolver:  Solving for Ux, Initial residual = 0.000369831707781, Final residual = 3.01113700603e-05, No Iterations 4
smoothSolver:  Solving for Uy, Initial residual = 0.00243119217515, Final residual = 0.000203113110996, No Iterations 4
smoothSolver:  Solving for Uz, Initial residual = 0.00355439304806, Final residual = 0.000313222125423, No Iterations 4
GAMG:  Solving for p, Initial residual = 0.00857702449351, Final residual = 0.000254067214686, No Iterations 5
time step continuity errors : sum local = 0.0169985427465, global = 8.17426349453e-05, cumulative = 4.12286358111
ExecutionTime = 4.43 s  ClockTime = 5 s

Time = 67

smoothSolver:  Solving for Ux, Initial residual = 0.000365686789152, Final residual = 2.97183520664e-05, No Iterations 4
smoothSolver:  Solving for Uy, Initial residual = 0.00236678540947, Final residual = 0.000197804321767, No Iterations 4
smoothSolver:  Solving for Uz, Initial residual = 0.00349234101268, Final residual = 0.000308150979351, No Iterations 4
GAMG:  Solving for p, Initial residual = 0.00805530968555, Final residual = 0.000216835100037, No Iterations 5
time step continuity errors : sum local = 0.014254360613, global = 5.05132523108e-05, cumulative = 4.12291409436
ExecutionTime = 4.5 s  ClockTime = 5 s

Time = 68

smoothSolver:  Solving for Ux, Initial residual = 0.000362062191175, Final residual = 2.93499383052e-05, No Iterations 4
smoothSolver:  Solving for Uy, Initial residual = 0.0023719699045, Final residual = 0.000200269042466, No Iterations 4
smoothSolver:  Solving for Uz, Initial residual = 0.00343999000106, Final residual = 0.000303903938129, No Iterations 4
GAMG:  Solving for p, Initial residual = 0.00734892832192, Final residual = 0.000179393675681, No Iterations 5
time step continuity errors : sum local = 0.0116000241793, global = 5.08503270927e-05, cumulative = 4.12296494468
ExecutionTime = 4.57 s  ClockTime = 5 s

Time = 69

smoothSolver:  Solving for Ux, Initial residual = 0.000357995146684, Final residual = 2.89990437189e-05, No Iterations 4
smoothSolver:  Solving for Uy, Initial residual = 0.00237118988357, Final residual = 0.000201599061041, No Iterations 4
smoothSolver:  Solving for Uz, Initial residual = 0.0033881419059, Final residual = 0.000299789146605, No Iterations 4
GAMG:  Solving for p, Initial residual = 0.00667622118644, Final residual = 0.000220040125949, No Iterations 5
time step continuity errors : sum local = 0.0139892475629, global = 2.32532994191e-05, cumulative = 4.12298819798
ExecutionTime = 4.64 s  ClockTime = 5 s

Time = 70

smoothSolver:  Solving for Ux, Initial residual = 0.000355093939366, Final residual = 2.86567920683e-05, No Iterations 4
smoothSolver:  Solving for Uy, Initial residual = 0.00239327216951, Final residual = 0.000204013011237, No Iterations 4
smoothSolver:  Solving for Uz, Initial residual = 0.00332736884901, Final residual = 0.000294894906317, No Iterations 4
GAMG:  Solving for p, Initial residual = 0.00604150145876, Final residual = 0.000216389402676, No Iterations 4
time step continuity errors : sum local = 0.0135548607609, global = 0.000202118098975, cumulative = 4.12319031608
ExecutionTime = 4.7 s  ClockTime = 5 s

Time = 71

smoothSolver:  Solving for Ux, Initial residual = 0.00035129777972, Final residual = 2.82905464574e-05, No Iterations 4
smoothSolver:  Solving for Uy, Initial residual = 0.00236063970633, Final residual = 0.000201164057483, No Iterations 4
smoothSolver:  Solving for Uz, Initial residual = 0.0032645822553, Final residual = 0.000289731648433, No Iterations 4
GAMG:  Solving for p, Initial residual = 0.00547192142823, Final residual = 0.000221225927535, No Iterations 4
time step continuity errors : sum local = 0.0137324936467, global = 0.0001897730109, cumulative = 4.12338008909
ExecutionTime = 4.77 s  ClockTime = 5 s

Time = 72

smoothSolver:  Solving for Ux, Initial residual = 0.000347680970773, Final residual = 2.79633987069e-05, No Iterations 4
smoothSolver:  Solving for Uy, Initial residual = 0.00229487047873, Final residual = 0.000195661488922, No Iterations 4
smoothSolver:  Solving for Uz, Initial residual = 0.00319030914301, Final residual = 0.00028363680501, No Iterations 4
GAMG:  Solving for p, Initial residual = 0.00527772947, Final residual = 0.000237556428804, No Iterations 4
time step continuity errors : sum local = 0.0145775437724, global = 0.000143125249959, cumulative = 4.12352321434
ExecutionTime = 4.83 s  ClockTime = 5 s

Time = 73

smoothSolver:  Solving for Ux, Initial residual = 0.000343141225325, Final residual = 2.76094875044e-05, No Iterations 4
smoothSolver:  Solving for Uy, Initial residual = 0.00221796912109, Final residual = 0.000189000458369, No Iterations 4
smoothSolver:  Solving for Uz, Initial residual = 0.0031172842039, Final residual = 0.000277451156602, No Iterations 4
GAMG:  Solving for p, Initial residual = 0.00521002867652, Final residual = 0.000228372970092, No Iterations 6
time step continuity errors : sum local = 0.0138404128206, global = 6.93445997669e-05, cumulative = 4.12359255894
ExecutionTime = 4.89 s  ClockTime = 5 s

Time = 74

smoothSolver:  Solving for Ux, Initial residual = 0.000338875982122, Final residual = 2.72792049709e-05, No Iterations 4
smoothSolver:  Solving for Uy, Initial residual = 0.00213923738048, Final residual = 0.000182229478197, No Iterations 4
smoothSolver:  Solving for Uz, Initial residual = 0.00304675037813, Final residual = 0.000271399222637, No Iterations 4
GAMG:  Solving for p, Initial residual = 0.00525932013854, Final residual = 0.00016202731172, No Iterations 6
time step continuity errors : sum local = 0.00963565722861, global = 7.08881772136e-05, cumulative = 4.12366344712
ExecutionTime = 4.96 s  ClockTime = 5 s

Time = 75

smoothSolver:  Solving for Ux, Initial residual = 0.000333262222341, Final residual = 2.69499997349e-05, No Iterations 4
smoothSolver:  Solving for Uy, Initial residual = 0.00208212300218, Final residual = 0.000176988815208, No Iterations 4
smoothSolver:  Solving for Uz, Initial residual = 0.00298834483396, Final residual = 0.000266516259279, No Iterations 4
GAMG:  Solving for p, Initial residual = 0.00502967365945, Final residual = 0.000224502051151, No Iterations 5
time step continuity errors : sum local = 0.0131604807843, global = 5.54375914802e-05, cumulative = 4.12371888471
ExecutionTime = 5.01 s  ClockTime = 5 s

Time = 76

smoothSolver:  Solving for Ux, Initial residual = 0.0003276244442, Final residual = 2.66052225283e-05, No Iterations 4
smoothSolver:  Solving for Uy, Initial residual = 0.00204529124534, Final residual = 0.00017395386292, No Iterations 4
smoothSolver:  Solving for Uz, Initial residual = 0.00294038214629, Final residual = 0.000262377533841, No Iterations 4
GAMG:  Solving for p, Initial residual = 0.00473907560407, Final residual = 0.000201641126407, No Iterations 5
time step continuity errors : sum local = 0.0116772843995, global = 3.99537931532e-05, cumulative = 4.12375883851
ExecutionTime = 5.07 s  ClockTime = 6 s

Time = 77

smoothSolver:  Solving for Ux, Initial residual = 0.000323845265737, Final residual = 2.62792582661e-05, No Iterations 4
smoothSolver:  Solving for Uy, Initial residual = 0.002027608458, Final residual = 0.000173028226955, No Iterations 4
smoothSolver:  Solving for Uz, Initial residual = 0.0028939307328, Final residual = 0.000258368295624, No Iterations 4
GAMG:  Solving for p, Initial residual = 0.00439014734228, Final residual = 0.000184721153991, No Iterations 4
time step continuity errors : sum local = 0.0105712515406, global = 0.000136823842359, cumulative = 4.12389566235
ExecutionTime = 5.15 s  ClockTime = 6 s

Time = 78

smoothSolver:  Solving for Ux, Initial residual = 0.000320625719185, Final residual = 2.59501753663e-05, No Iterations 4
smoothSolver:  Solving for Uy, Initial residual = 0.00203088942782, Final residual = 0.000174017097965, No Iterations 4
smoothSolver:  Solving for Uz, Initial residual = 0.00285029469328, Final residual = 0.000254599220766, No Iterations 4
GAMG:  Solving for p, Initial residual = 0.00403229399323, Final residual = 0.000175148832006, No Iterations 4
time step continuity errors : sum local = 0.00992889648344, global = 5.49306617993e-05, cumulative = 4.12395059301
ExecutionTime = 5.21 s  ClockTime = 6 s

Time = 79

smoothSolver:  Solving for Ux, Initial residual = 0.00031802252253, Final residual = 2.56293902856e-05, No Iterations 4
smoothSolver:  Solving for Uy, Initial residual = 0.00201415181024, Final residual = 0.000172454298839, No Iterations 4
smoothSolver:  Solving for Uz, Initial residual = 0.0028024115797, Final residual = 0.00025046169491, No Iterations 4
GAMG:  Solving for p, Initial residual = 0.00375098618953, Final residual = 0.000151575518971, No Iterations 4
time step continuity errors : sum local = 0.00846881394498, global = 2.1096580257e-05, cumulative = 4.12397168959
ExecutionTime = 5.28 s  ClockTime = 6 s

Time = 80

smoothSolver:  Solving for Ux, Initial residual = 0.000314338159244, Final residual = 2.53043708868e-05, No Iterations 4
smoothSolver:  Solving for Uy, Initial residual = 0.00202115280368, Final residual = 0.000173037419422, No Iterations 4
smoothSolver:  Solving for Uz, Initial residual = 0.00275329673278, Final residual = 0.000246286914185, No Iterations 4
GAMG:  Solving for p, Initial residual = 0.00344770849587, Final residual = 0.000160479824959, No Iterations 4
time step continuity errors : sum local = 0.00884265256983, global = 4.03712216544e-05, cumulative = 4.12401206081
ExecutionTime = 5.33 s  ClockTime = 6 s

Time = 81

smoothSolver:  Solving for Ux, Initial residual = 0.000310563628392, Final residual = 2.49832177716e-05, No Iterations 4
smoothSolver:  Solving for Uy, Initial residual = 0.00200715755662, Final residual = 0.000171719803275, No Iterations 4
smoothSolver:  Solving for Uz, Initial residual = 0.00270381410503, Final residual = 0.000242069475735, No Iterations 4
GAMG:  Solving for p, Initial residual = 0.0032088408589, Final residual = 0.000146951218956, No Iterations 5
time step continuity errors : sum local = 0.0080031018011, global = 2.71708678288e-05, cumulative = 4.12403923168
ExecutionTime = 5.4 s  ClockTime = 6 s

Time = 82

smoothSolver:  Solving for Ux, Initial residual = 0.000306141747345, Final residual = 2.46555038773e-05, No Iterations 4
smoothSolver:  Solving for Uy, Initial residual = 0.00198413497619, Final residual = 0.000169562380336, No Iterations 4
smoothSolver:  Solving for Uz, Initial residual = 0.00265630574695, Final residual = 0.000237999609768, No Iterations 4
GAMG:  Solving for p, Initial residual = 0.00311542366118, Final residual = 0.000153954595846, No Iterations 4
time step continuity errors : sum local = 0.00828078337996, global = 2.37217641103e-05, cumulative = 4.12406295344
ExecutionTime = 5.48 s  ClockTime = 6 s

Time = 83

smoothSolver:  Solving for Ux, Initial residual = 0.000301640058339, Final residual = 2.43268269791e-05, No Iterations 4
smoothSolver:  Solving for Uy, Initial residual = 0.00196038946775, Final residual = 0.000167376129668, No Iterations 4
smoothSolver:  Solving for Uz, Initial residual = 0.00261093690968, Final residual = 0.000234091468016, No Iterations 4
GAMG:  Solving for p, Initial residual = 0.00305446922076, Final residual = 7.67688257109e-05, No Iterations 6
time step continuity errors : sum local = 0.00408775680669, global = 1.95137417414e-05, cumulative = 4.12408246719
ExecutionTime = 5.53 s  ClockTime = 6 s

Time = 84

smoothSolver:  Solving for Ux, Initial residual = 0.000297806682428, Final residual = 2.40084354889e-05, No Iterations 4
smoothSolver:  Solving for Uy, Initial residual = 0.00193601706411, Final residual = 0.000165167039785, No Iterations 4
smoothSolver:  Solving for Uz, Initial residual = 0.00256793114864, Final residual = 0.000230294701856, No Iterations 4
GAMG:  Solving for p, Initial residual = 0.00301683033087, Final residual = 6.94660229061e-05, No Iterations 6
time step continuity errors : sum local = 0.0036483696834, global = 2.00978611139e-05, cumulative = 4.12410256505
ExecutionTime = 5.6 s  ClockTime = 6 s

Time = 85

smoothSolver:  Solving for Ux, Initial residual = 0.000294332412575, Final residual = 2.36964798994e-05, No Iterations 4
smoothSolver:  Solving for Uy, Initial residual = 0.00192357279016, Final residual = 0.000164173891979, No Iterations 4
smoothSolver:  Solving for Uz, Initial residual = 0.0025266538467, Final residual = 0.000226631533604, No Iterations 4
GAMG:  Solving for p, Initial residual = 0.00292213435759, Final residual = 0.000129457583713, No Iterations 5
time step continuity errors : sum local = 0.00671148710229, global = 2.31472864923e-05, cumulative = 4.12412571233
ExecutionTime = 5.67 s  ClockTime = 6 s

Time = 86

smoothSolver:  Solving for Ux, Initial residual = 0.000291210133823, Final residual = 2.33917951244e-05, No Iterations 4
smoothSolver:  Solving for Uy, Initial residual = 0.00191950386507, Final residual = 0.000164321011371, No Iterations 4
smoothSolver:  Solving for Uz, Initial residual = 0.00248683810247, Final residual = 0.000223080144412, No Iterations 4
GAMG:  Solving for p, Initial residual = 0.00279035837984, Final residual = 0.000112532312811, No Iterations 4
time step continuity errors : sum local = 0.00576505044013, global = 3.60051267962e-05, cumulative = 4.12416171746
ExecutionTime = 5.75 s  ClockTime = 6 s

Time = 87

smoothSolver:  Solving for Ux, Initial residual = 0.000289400093168, Final residual = 2.3100720105e-05, No Iterations 4
smoothSolver:  Solving for Uy, Initial residual = 0.00191587673965, Final residual = 0.00016478097661, No Iterations 4
smoothSolver:  Solving for Uz, Initial residual = 0.00244797447742, Final residual = 0.000219679492361, No Iterations 4
GAMG:  Solving for p, Initial residual = 0.00257694403597, Final residual = 6.12146128942e-05, No Iterations 6
time step continuity errors : sum local = 0.0031047271314, global = 1.80863544566e-05, cumulative = 4.12417980381
ExecutionTime = 5.81 s  ClockTime = 6 s

Time = 88

smoothSolver:  Solving for Ux, Initial residual = 0.000286446908589, Final residual = 2.28058795253e-05, No Iterations 4
smoothSolver:  Solving for Uy, Initial residual = 0.00190780879779, Final residual = 0.000164576100746, No Iterations 4
smoothSolver:  Solving for Uz, Initial residual = 0.00240900476683, Final residual = 0.000216216314594, No Iterations 4
GAMG:  Solving for p, Initial residual = 0.00241779657531, Final residual = 0.000114964044494, No Iterations 4
time step continuity errors : sum local = 0.00575265248075, global = 4.47588555516e-05, cumulative = 4.12422456267
ExecutionTime = 5.9 s  ClockTime = 6 s

Time = 89

smoothSolver:  Solving for Ux, Initial residual = 0.000283254684674, Final residual = 2.24897583177e-05, No Iterations 4
smoothSolver:  Solving for Uy, Initial residual = 0.00189859843988, Final residual = 0.000163868623374, No Iterations 4
smoothSolver:  Solving for Uz, Initial residual = 0.00237182273558, Final residual = 0.000212882483587, No Iterations 4
GAMG:  Solving for p, Initial residual = 0.00221086537774, Final residual = 6.19045605534e-05, No Iterations 6
time step continuity errors : sum local = 0.00306578712624, global = 9.10408080008e-06, cumulative = 4.12423366675
ExecutionTime = 5.95 s  ClockTime = 6 s

Time = 90

smoothSolver:  Solving for Ux, Initial residual = 0.000281923583037, Final residual = 2.21978356057e-05, No Iterations 4
smoothSolver:  Solving for Uy, Initial residual = 0.00188696030327, Final residual = 0.000162854664371, No Iterations 4
smoothSolver:  Solving for Uz, Initial residual = 0.00233404524644, Final residual = 0.000209532643558, No Iterations 4
GAMG:  Solving for p, Initial residual = 0.00210719058651, Final residual = 6.22606775583e-05, No Iterations 6
time step continuity errors : sum local = 0.00304544333192, global = 1.752378796e-06, cumulative = 4.12423541913
ExecutionTime = 6.03 s  ClockTime = 7 s

Time = 91

smoothSolver:  Solving for Ux, Initial residual = 0.000281023060983, Final residual = 2.19185083472e-05, No Iterations 4
smoothSolver:  Solving for Uy, Initial residual = 0.00188247926426, Final residual = 0.000162258000339, No Iterations 4
smoothSolver:  Solving for Uz, Initial residual = 0.00229585008524, Final residual = 0.000206209882709, No Iterations 4
GAMG:  Solving for p, Initial residual = 0.0020392421507, Final residual = 5.44203117397e-05, No Iterations 6
time step continuity errors : sum local = 0.00263188118165, global = 9.37661715001e-06, cumulative = 4.12424479575
ExecutionTime = 6.1 s  ClockTime = 7 s

Time = 92

smoothSolver:  Solving for Ux, Initial residual = 0.000278612726158, Final residual = 2.16308792056e-05, No Iterations 4
smoothSolver:  Solving for Uy, Initial residual = 0.00186632632485, Final residual = 0.000160601055667, No Iterations 4
smoothSolver:  Solving for Uz, Initial residual = 0.0022592579579, Final residual = 0.000203024986864, No Iterations 4
GAMG:  Solving for p, Initial residual = 0.00199685557432, Final residual = 5.64781969138e-05, No Iterations 6
time step continuity errors : sum local = 0.00270403348516, global = 1.12502204416e-05, cumulative = 4.12425604597
ExecutionTime = 6.19 s  ClockTime = 7 s

Time = 93

smoothSolver:  Solving for Ux, Initial residual = 0.000276914650069, Final residual = 2.13567362966e-05, No Iterations 4
smoothSolver:  Solving for Uy, Initial residual = 0.00184564221697, Final residual = 0.000158439040002, No Iterations 4
smoothSolver:  Solving for Uz, Initial residual = 0.00222326863852, Final residual = 0.000199930958445, No Iterations 4
GAMG:  Solving for p, Initial residual = 0.00197386169492, Final residual = 6.27116229067e-05, No Iterations 6
time step continuity errors : sum local = 0.00297116216975, global = 7.83893406661e-06, cumulative = 4.1242638849
ExecutionTime = 6.26 s  ClockTime = 7 s

Time = 94

smoothSolver:  Solving for Ux, Initial residual = 0.000273566537535, Final residual = 2.10834696933e-05, No Iterations 4
smoothSolver:  Solving for Uy, Initial residual = 0.00182933119448, Final residual = 0.000156807093445, No Iterations 4
smoothSolver:  Solving for Uz, Initial residual = 0.00218807677087, Final residual = 0.000196958004419, No Iterations 4
GAMG:  Solving for p, Initial residual = 0.00195044821634, Final residual = 4.40133511576e-05, No Iterations 6
time step continuity errors : sum local = 0.00206319305689, global = 2.77011630831e-05, cumulative = 4.12429158606
ExecutionTime = 6.31 s  ClockTime = 7 s

Time = 95

smoothSolver:  Solving for Ux, Initial residual = 0.00027035103288, Final residual = 2.08169324663e-05, No Iterations 4
smoothSolver:  Solving for Uy, Initial residual = 0.00181438383382, Final residual = 0.000155511162566, No Iterations 4
smoothSolver:  Solving for Uz, Initial residual = 0.0021536132186, Final residual = 0.000194110858166, No Iterations 4
GAMG:  Solving for p, Initial residual = 0.00188929045335, Final residual = 4.88648863903e-05, No Iterations 6
time step continuity errors : sum local = 0.00226635324389, global = -5.09335076446e-07, cumulative = 4.12429107673
ExecutionTime = 6.39 s  ClockTime = 7 s

Time = 96

smoothSolver:  Solving for Ux, Initial residual = 0.000267347185508, Final residual = 2.05533485652e-05, No Iterations 4
smoothSolver:  Solving for Uy, Initial residual = 0.00180552571385, Final residual = 0.000154784134038, No Iterations 4
smoothSolver:  Solving for Uz, Initial residual = 0.00212001043404, Final residual = 0.000191338714715, No Iterations 4
GAMG:  Solving for p, Initial residual = 0.00182052972199, Final residual = 8.33200371405e-05, No Iterations 4
time step continuity errors : sum local = 0.00382036742185, global = 2.53040287396e-05, cumulative = 4.12431638076
ExecutionTime = 6.44 s  ClockTime = 7 s

Time = 97

smoothSolver:  Solving for Ux, Initial residual = 0.000263184355142, Final residual = 2.02887400704e-05, No Iterations 4
smoothSolver:  Solving for Uy, Initial residual = 0.00179749922591, Final residual = 0.000154002011024, No Iterations 4
smoothSolver:  Solving for Uz, Initial residual = 0.00208728287292, Final residual = 0.000188677092708, No Iterations 4
GAMG:  Solving for p, Initial residual = 0.00170898762358, Final residual = 3.45664356279e-05, No Iterations 6
time step continuity errors : sum local = 0.00157111121092, global = 2.06680901901e-05, cumulative = 4.12433704885
ExecutionTime = 6.52 s  ClockTime = 7 s

Time = 98

smoothSolver:  Solving for Ux, Initial residual = 0.000259274730868, Final residual = 2.00154874249e-05, No Iterations 4
smoothSolver:  Solving for Uy, Initial residual = 0.00178650304531, Final residual = 0.000153015727459, No Iterations 4
smoothSolver:  Solving for Uz, Initial residual = 0.00205625244724, Final residual = 0.000186050871603, No Iterations 4
GAMG:  Solving for p, Initial residual = 0.00163749022315, Final residual = 7.67536106672e-05, No Iterations 4
time step continuity errors : sum local = 0.00344794046513, global = 1.18932262578e-05, cumulative = 4.12434894207
ExecutionTime = 6.59 s  ClockTime = 7 s

Time = 99

smoothSolver:  Solving for Ux, Initial residual = 0.000256016858871, Final residual = 1.97570640643e-05, No Iterations 4
smoothSolver:  Solving for Uy, Initial residual = 0.00177965390467, Final residual = 0.000152228755846, No Iterations 4
smoothSolver:  Solving for Uz, Initial residual = 0.00202674255308, Final residual = 0.000183547006929, No Iterations 4
GAMG:  Solving for p, Initial residual = 0.00154059025184, Final residual = 5.20533328793e-05, No Iterations 6
time step continuity errors : sum local = 0.00231710429437, global = 1.39996739526e-05, cumulative = 4.12436294175
ExecutionTime = 6.64 s  ClockTime = 7 s

Time = 100

smoothSolver:  Solving for Ux, Initial residual = 0.000254299525276, Final residual = 1.95086818437e-05, No Iterations 4
smoothSolver:  Solving for Uy, Initial residual = 0.00177303964034, Final residual = 0.000151533399648, No Iterations 4
smoothSolver:  Solving for Uz, Initial residual = 0.00199779157994, Final residual = 0.000181051193657, No Iterations 4
GAMG:  Solving for p, Initial residual = 0.00150274921682, Final residual = 4.58703895107e-05, No Iterations 6
time step continuity errors : sum local = 0.00201936449568, global = 1.18954861868e-05, cumulative = 4.12437483723
ExecutionTime = 6.72 s  ClockTime = 7 s

Time = 101

smoothSolver:  Solving for Ux, Initial residual = 0.000251904657247, Final residual = 1.92713770404e-05, No Iterations 4
smoothSolver:  Solving for Uy, Initial residual = 0.00176498878511, Final residual = 0.00015073436263, No Iterations 4
smoothSolver:  Solving for Uz, Initial residual = 0.00196920615831, Final residual = 0.000178606356052, No Iterations 4
GAMG:  Solving for p, Initial residual = 0.00145932808421, Final residual = 4.41737637949e-05, No Iterations 6
time step continuity errors : sum local = 0.00192459957046, global = 1.04145946424e-05, cumulative = 4.12438525183
ExecutionTime = 6.8 s  ClockTime = 7 s

Time = 102

smoothSolver:  Solving for Ux, Initial residual = 0.000249361378636, Final residual = 1.90359737912e-05, No Iterations 4
smoothSolver:  Solving for Uy, Initial residual = 0.00175861593114, Final residual = 0.000150170381617, No Iterations 4
smoothSolver:  Solving for Uz, Initial residual = 0.00194102779004, Final residual = 0.000176210095317, No Iterations 4
GAMG:  Solving for p, Initial residual = 0.00142685155239, Final residual = 4.43336175933e-05, No Iterations 6
time step continuity errors : sum local = 0.00191221488023, global = 1.02862919628e-05, cumulative = 4.12439553812
ExecutionTime = 6.86 s  ClockTime = 7 s

Time = 103

smoothSolver:  Solving for Ux, Initial residual = 0.00024658274151, Final residual = 1.87940335963e-05, No Iterations 4
smoothSolver:  Solving for Uy, Initial residual = 0.00175456073096, Final residual = 0.000149853530471, No Iterations 4
smoothSolver:  Solving for Uz, Initial residual = 0.00191359610173, Final residual = 0.000173829197739, No Iterations 4
GAMG:  Solving for p, Initial residual = 0.00139754987772, Final residual = 5.68697712387e-05, No Iterations 6
time step continuity errors : sum local = 0.00242876530085, global = 8.81043674962e-06, cumulative = 4.12440434856
ExecutionTime = 6.92 s  ClockTime = 7 s

Time = 104

smoothSolver:  Solving for Ux, Initial residual = 0.000244443033946, Final residual = 1.85652314874e-05, No Iterations 4
smoothSolver:  Solving for Uy, Initial residual = 0.00174980015908, Final residual = 0.00014964695265, No Iterations 4
smoothSolver:  Solving for Uz, Initial residual = 0.00188636745138, Final residual = 0.000171478590693, No Iterations 4
GAMG:  Solving for p, Initial residual = 0.00137150829663, Final residual = 4.82627910688e-05, No Iterations 7
time step continuity errors : sum local = 0.00204117769991, global = 9.6996324982e-06, cumulative = 4.12441404819
ExecutionTime = 6.99 s  ClockTime = 7 s

Time = 105

smoothSolver:  Solving for Ux, Initial residual = 0.000241157450068, Final residual = 1.83186354926e-05, No Iterations 4
smoothSolver:  Solving for Uy, Initial residual = 0.00174953993402, Final residual = 0.00014986681363, No Iterations 4
smoothSolver:  Solving for Uz, Initial residual = 0.00186007553649, Final residual = 0.000169114855593, No Iterations 4
GAMG:  Solving for p, Initial residual = 0.0013254405212, Final residual = 3.47781433644e-05, No Iterations 7
time step continuity errors : sum local = 0.00145625039591, global = 7.56336315732e-06, cumulative = 4.12442161155
ExecutionTime = 7.07 s  ClockTime = 8 s

Time = 106

smoothSolver:  Solving for Ux, Initial residual = 0.000238454379485, Final residual = 1.80812807963e-05, No Iterations 4
smoothSolver:  Solving for Uy, Initial residual = 0.0017437495683, Final residual = 0.000149801169965, No Iterations 4
smoothSolver:  Solving for Uz, Initial residual = 0.00183488207997, Final residual = 0.000166810562002, No Iterations 4
GAMG:  Solving for p, Initial residual = 0.00127524020979, Final residual = 5.19945074903e-05, No Iterations 7
time step continuity errors : sum local = 0.00215490576669, global = 1.00595387513e-05, cumulative = 4.12443167109
ExecutionTime = 7.14 s  ClockTime = 8 s

Time = 107

smoothSolver:  Solving for Ux, Initial residual = 0.000236538974037, Final residual = 1.7848231882e-05, No Iterations 4
smoothSolver:  Solving for Uy, Initial residual = 0.00174119751214, Final residual = 0.000149980902877, No Iterations 4
smoothSolver:  Solving for Uz, Initial residual = 0.00181016069717, Final residual = 0.000164513229569, No Iterations 4
GAMG:  Solving for p, Initial residual = 0.00122675179099, Final residual = 4.37885260737e-05, No Iterations 6
time step continuity errors : sum local = 0.00179679859537, global = 1.04610152232e-05, cumulative = 4.12444213211
ExecutionTime = 7.19 s  ClockTime = 8 s

Time = 108

smoothSolver:  Solving for Ux, Initial residual = 0.000236368607478, Final residual = 1.76282338678e-05, No Iterations 4
smoothSolver:  Solving for Uy, Initial residual = 0.00173832623261, Final residual = 0.000150012855002, No Iterations 4
smoothSolver:  Solving for Uz, Initial residual = 0.00178523545494, Final residual = 0.000162244154159, No Iterations 4
GAMG:  Solving for p, Initial residual = 0.00118590374392, Final residual = 4.66549502066e-05, No Iterations 6
time step continuity errors : sum local = 0.00189685926734, global = 1.12640349988e-05, cumulative = 4.12445339614
ExecutionTime = 7.27 s  ClockTime = 8 s

Time = 109

smoothSolver:  Solving for Ux, Initial residual = 0.000235437080992, Final residual = 1.73777512216e-05, No Iterations 4
smoothSolver:  Solving for Uy, Initial residual = 0.00174082973389, Final residual = 0.000150062100964, No Iterations 4
smoothSolver:  Solving for Uz, Initial residual = 0.00176187164943, Final residual = 0.000159987168837, No Iterations 4
GAMG:  Solving for p, Initial residual = 0.00117998597851, Final residual = 5.69233338784e-05, No Iterations 7
time step continuity errors : sum local = 0.00229270736128, global = 7.89266304694e-06, cumulative = 4.12446128881
ExecutionTime = 7.33 s  ClockTime = 8 s

Time = 110

smoothSolver:  Solving for Ux, Initial residual = 0.00023572795001, Final residual = 1.71543961532e-05, No Iterations 4
smoothSolver:  Solving for Uy, Initial residual = 0.00173834575525, Final residual = 0.000149617704184, No Iterations 4
smoothSolver:  Solving for Uz, Initial residual = 0.0017385385172, Final residual = 0.000157755013374, No Iterations 4
GAMG:  Solving for p, Initial residual = 0.00120123579197, Final residual = 4.770074752e-05, No Iterations 6
time step continuity errors : sum local = 0.0019010254507, global = 9.98647320191e-06, cumulative = 4.12447127528
ExecutionTime = 7.39 s  ClockTime = 8 s

Time = 111

smoothSolver:  Solving for Ux, Initial residual = 0.000235002742144, Final residual = 1.69379263066e-05, No Iterations 4
smoothSolver:  Solving for Uy, Initial residual = 0.00173339614138, Final residual = 0.000148992837356, No Iterations 4
smoothSolver:  Solving for Uz, Initial residual = 0.00171599505906, Final residual = 0.000155631061584, No Iterations 4
GAMG:  Solving for p, Initial residual = 0.00118519304405, Final residual = 3.25728961414e-05, No Iterations 8
time step continuity errors : sum local = 0.00128579952205, global = 7.32195175065e-06, cumulative = 4.12447859723
ExecutionTime = 7.46 s  ClockTime = 8 s

Time = 112

smoothSolver:  Solving for Ux, Initial residual = 0.000234236362587, Final residual = 1.67446922944e-05, No Iterations 4
smoothSolver:  Solving for Uy, Initial residual = 0.00172377629679, Final residual = 0.000148031567039, No Iterations 4
smoothSolver:  Solving for Uz, Initial residual = 0.00169247445272, Final residual = 0.000153554332313, No Iterations 4
GAMG:  Solving for p, Initial residual = 0.00118279307381, Final residual = 3.8402403227e-05, No Iterations 6
time step continuity errors : sum local = 0.00150025221194, global = 5.25600794267e-06, cumulative = 4.12448385324
ExecutionTime = 7.54 s  ClockTime = 8 s

Time = 113

smoothSolver:  Solving for Ux, Initial residual = 0.000232860658792, Final residual = 1.65215892751e-05, No Iterations 4
smoothSolver:  Solving for Uy, Initial residual = 0.00172010156558, Final residual = 0.000147616802558, No Iterations 4
smoothSolver:  Solving for Uz, Initial residual = 0.00167057640103, Final residual = 0.000151556000284, No Iterations 4
GAMG:  Solving for p, Initial residual = 0.00115444061315, Final residual = 3.33399919373e-05, No Iterations 6
time step continuity errors : sum local = 0.00129012132283, global = 8.7076746992e-06, cumulative = 4.12449256091
ExecutionTime = 7.6 s  ClockTime = 8 s

Time = 114

smoothSolver:  Solving for Ux, Initial residual = 0.000230413256591, Final residual = 1.63169654225e-05, No Iterations 4
smoothSolver:  Solving for Uy, Initial residual = 0.00171210475515, Final residual = 0.000146919987509, No Iterations 4
smoothSolver:  Solving for Uz, Initial residual = 0.0016482666117, Final residual = 0.000149627005407, No Iterations 4
GAMG:  Solving for p, Initial residual = 0.00111960973991, Final residual = 2.36039995682e-05, No Iterations 6
time step continuity errors : sum local = 0.000904663863175, global = 5.24546837446e-06, cumulative = 4.12449780638
ExecutionTime = 7.67 s  ClockTime = 8 s

Time = 115

smoothSolver:  Solving for Ux, Initial residual = 0.000230572164908, Final residual = 1.61456914867e-05, No Iterations 4
smoothSolver:  Solving for Uy, Initial residual = 0.00170385263179, Final residual = 0.000146229956397, No Iterations 4
smoothSolver:  Solving for Uz, Initial residual = 0.00162495513475, Final residual = 0.000147755986157, No Iterations 4
GAMG:  Solving for p, Initial residual = 0.00108985592364, Final residual = 2.20122158571e-05, No Iterations 6
time step continuity errors : sum local = 0.000835875646722, global = 3.01412857462e-06, cumulative = 4.12450082051
ExecutionTime = 7.74 s  ClockTime = 8 s

Time = 116

smoothSolver:  Solving for Ux, Initial residual = 0.000228391026011, Final residual = 1.59215868547e-05, No Iterations 4
smoothSolver:  Solving for Uy, Initial residual = 0.00170146510972, Final residual = 0.000145802775078, No Iterations 4
smoothSolver:  Solving for Uz, Initial residual = 0.00160350090864, Final residual = 0.000145998881298, No Iterations 4
GAMG:  Solving for p, Initial residual = 0.00105383190414, Final residual = 3.10445003523e-05, No Iterations 6
time step continuity errors : sum local = 0.00116866079961, global = 6.47850176037e-06, cumulative = 4.12450729901
ExecutionTime = 7.8 s  ClockTime = 8 s

Time = 117

smoothSolver:  Solving for Ux, Initial residual = 0.000227085484196, Final residual = 1.57419374894e-05, No Iterations 4
smoothSolver:  Solving for Uy, Initial residual = 0.0016933748788, Final residual = 0.000145013186446, No Iterations 4
smoothSolver:  Solving for Uz, Initial residual = 0.0015810710805, Final residual = 0.000144290973711, No Iterations 4
GAMG:  Solving for p, Initial residual = 0.00102411306082, Final residual = 2.98800228532e-05, No Iterations 6
time step continuity errors : sum local = 0.00111513324109, global = 6.33795756414e-06, cumulative = 4.12451363697
ExecutionTime = 7.86 s  ClockTime = 8 s

Time = 118

smoothSolver:  Solving for Ux, Initial residual = 0.000224669065046, Final residual = 1.55393981486e-05, No Iterations 4
smoothSolver:  Solving for Uy, Initial residual = 0.00168738857171, Final residual = 0.000144316025614, No Iterations 4
smoothSolver:  Solving for Uz, Initial residual = 0.00155978700285, Final residual = 0.000142641986188, No Iterations 4
GAMG:  Solving for p, Initial residual = 0.000996654757141, Final residual = 3.14035107407e-05, No Iterations 6
time step continuity errors : sum local = 0.00116228355962, global = 7.68227716898e-06, cumulative = 4.12452131925
ExecutionTime = 7.93 s  ClockTime = 8 s

Time = 119

smoothSolver:  Solving for Ux, Initial residual = 0.000220776039945, Final residual = 1.53265757983e-05, No Iterations 4
smoothSolver:  Solving for Uy, Initial residual = 0.00167929993143, Final residual = 0.00014358145617, No Iterations 4
smoothSolver:  Solving for Uz, Initial residual = 0.00153968964696, Final residual = 0.000141019286971, No Iterations 4
GAMG:  Solving for p, Initial residual = 0.000976714831703, Final residual = 3.62653079257e-05, No Iterations 6
time step continuity errors : sum local = 0.00133109432056, global = 8.1042050239e-06, cumulative = 4.12452942345
ExecutionTime = 7.99 s  ClockTime = 8 s

Time = 120

smoothSolver:  Solving for Ux, Initial residual = 0.000217547473577, Final residual = 1.51231769017e-05, No Iterations 4
smoothSolver:  Solving for Uy, Initial residual = 0.00167186124839, Final residual = 0.000142983676942, No Iterations 4
smoothSolver:  Solving for Uz, Initial residual = 0.00152040001316, Final residual = 0.000139412354994, No Iterations 4
GAMG:  Solving for p, Initial residual = 0.00096419283326, Final residual = 3.87228243891e-05, No Iterations 6
time step continuity errors : sum local = 0.00140919629196, global = 7.60265149037e-06, cumulative = 4.1245370261
ExecutionTime = 8.06 s  ClockTime = 9 s

Time = 121

smoothSolver:  Solving for Ux, Initial residual = 0.000216739971363, Final residual = 1.4934854204e-05, No Iterations 4
smoothSolver:  Solving for Uy, Initial residual = 0.0016671346065, Final residual = 0.000142583289255, No Iterations 4
smoothSolver:  Solving for Uz, Initial residual = 0.00150166242097, Final residual = 0.000137815590857, No Iterations 4
GAMG:  Solving for p, Initial residual = 0.000959455463554, Final residual = 3.80146981618e-05, No Iterations 6
time step continuity errors : sum local = 0.00137149799422, global = 7.54083978182e-06, cumulative = 4.12454456694
ExecutionTime = 8.12 s  ClockTime = 9 s

Time = 122

smoothSolver:  Solving for Ux, Initial residual = 0.000216089381635, Final residual = 1.47440349898e-05, No Iterations 4
smoothSolver:  Solving for Uy, Initial residual = 0.00166586715238, Final residual = 0.000142500855587, No Iterations 4
smoothSolver:  Solving for Uz, Initial residual = 0.00148325156225, Final residual = 0.000136220220326, No Iterations 4
GAMG:  Solving for p, Initial residual = 0.000952482641133, Final residual = 3.87923595858e-05, No Iterations 7
time step continuity errors : sum local = 0.00138769975368, global = 6.5004849841e-06, cumulative = 4.12455106743
ExecutionTime = 8.18 s  ClockTime = 9 s

Time = 123

smoothSolver:  Solving for Ux, Initial residual = 0.000216197339179, Final residual = 1.45696814525e-05, No Iterations 4
smoothSolver:  Solving for Uy, Initial residual = 0.00166357193158, Final residual = 0.000142541588074, No Iterations 4
smoothSolver:  Solving for Uz, Initial residual = 0.001464705513, Final residual = 0.00013463699188, No Iterations 4
GAMG:  Solving for p, Initial residual = 0.000942848582539, Final residual = 4.26180397076e-05, No Iterations 6
time step continuity errors : sum local = 0.00151092439859, global = 7.90803127297e-06, cumulative = 4.12455897546
ExecutionTime = 8.24 s  ClockTime = 9 s

Time = 124

smoothSolver:  Solving for Ux, Initial residual = 0.000213561947876, Final residual = 1.43751745659e-05, No Iterations 4
smoothSolver:  Solving for Uy, Initial residual = 0.00166359625647, Final residual = 0.00014283906984, No Iterations 4
[...]
smoothSolver:  Solving for Uz, Initial residual = 1.03505847623e-05, Final residual = 5.66801324788e-06, No Iterations 1
GAMG:  Solving for p, Initial residual = 1.48485218965e-06, Final residual = 7.73860744664e-07, No Iterations 1
time step continuity errors : sum local = 8.35633945489e-06, global = 1.14028263155e-07, cumulative = 4.12477291237
ExecutionTime = 102.64 s  ClockTime = 103 s

Time = 1563

smoothSolver:  Solving for Ux, Initial residual = 9.85291471386e-06, Final residual = 9.85291471386e-06, No Iterations 0
smoothSolver:  Solving for Uy, Initial residual = 0.00012425224307, Final residual = 1.12948661801e-05, No Iterations 4
smoothSolver:  Solving for Uz, Initial residual = 1.03379380245e-05, Final residual = 5.66109248666e-06, No Iterations 1
GAMG:  Solving for p, Initial residual = 1.48218946112e-06, Final residual = 7.69522972576e-07, No Iterations 1
time step continuity errors : sum local = 8.30945860303e-06, global = 1.14412361596e-07, cumulative = 4.12477302678
ExecutionTime = 102.7 s  ClockTime = 103 s

Time = 1564

smoothSolver:  Solving for Ux, Initial residual = 9.95595295944e-06, Final residual = 9.95595295944e-06, No Iterations 0
smoothSolver:  Solving for Uy, Initial residual = 0.000124072382363, Final residual = 1.12786193079e-05, No Iterations 4
smoothSolver:  Solving for Uz, Initial residual = 1.03253030674e-05, Final residual = 5.65417869204e-06, No Iterations 1
GAMG:  Solving for p, Initial residual = 1.47982082473e-06, Final residual = 7.65993109055e-07, No Iterations 1
time step continuity errors : sum local = 8.27130224114e-06, global = 1.15147513495e-07, cumulative = 4.12477314193
ExecutionTime = 102.76 s  ClockTime = 103 s

Time = 1565

smoothSolver:  Solving for Ux, Initial residual = 9.97985399493e-06, Final residual = 9.97985399493e-06, No Iterations 0
smoothSolver:  Solving for Uy, Initial residual = 0.000123893081825, Final residual = 1.12624273195e-05, No Iterations 4
smoothSolver:  Solving for Uz, Initial residual = 1.0312671988e-05, Final residual = 5.64726740703e-06, No Iterations 1
GAMG:  Solving for p, Initial residual = 1.47762081702e-06, Final residual = 7.63415204027e-07, No Iterations 1
time step continuity errors : sum local = 8.24342558953e-06, global = 1.16281923793e-07, cumulative = 4.12477325821
ExecutionTime = 102.82 s  ClockTime = 103 s

Time = 1566

smoothSolver:  Solving for Ux, Initial residual = 9.99510769078e-06, Final residual = 9.99510769078e-06, No Iterations 0
smoothSolver:  Solving for Uy, Initial residual = 0.000123714553897, Final residual = 1.12463086924e-05, No Iterations 4
smoothSolver:  Solving for Uz, Initial residual = 1.03000400962e-05, Final residual = 5.64035571093e-06, No Iterations 1
GAMG:  Solving for p, Initial residual = 1.47545784768e-06, Final residual = 7.61667149128e-07, No Iterations 1
time step continuity errors : sum local = 8.22451017944e-06, global = 1.17848060205e-07, cumulative = 4.12477337606
ExecutionTime = 102.86 s  ClockTime = 103 s

Time = 1567

smoothSolver:  Solving for Ux, Initial residual = 1.00027793037e-05, Final residual = 5.26571068068e-06, No Iterations 1
smoothSolver:  Solving for Uy, Initial residual = 0.000123536790058, Final residual = 1.12302618398e-05, No Iterations 4
smoothSolver:  Solving for Uz, Initial residual = 1.02874059607e-05, Final residual = 5.63344308309e-06, No Iterations 1
GAMG:  Solving for p, Initial residual = 1.47325244001e-06, Final residual = 7.6469912973e-07, No Iterations 1
time step continuity errors : sum local = 8.25720966889e-06, global = 1.27597501722e-07, cumulative = 4.12477350365
ExecutionTime = 102.92 s  ClockTime = 103 s

Time = 1568

smoothSolver:  Solving for Ux, Initial residual = 9.8544203699e-06, Final residual = 9.8544203699e-06, No Iterations 0
smoothSolver:  Solving for Uy, Initial residual = 0.000123360887694, Final residual = 1.12143879599e-05, No Iterations 4
smoothSolver:  Solving for Uz, Initial residual = 1.02747602529e-05, Final residual = 5.62652452561e-06, No Iterations 1
GAMG:  Solving for p, Initial residual = 1.47117598129e-06, Final residual = 8.92959458388e-07, No Iterations 1
time step continuity errors : sum local = 9.64211549116e-06, global = 7.35081943713e-08, cumulative = 4.12477357716
ExecutionTime = 102.98 s  ClockTime = 103 s

Time = 1569

smoothSolver:  Solving for Ux, Initial residual = 9.95384141144e-06, Final residual = 9.95384141144e-06, No Iterations 0
smoothSolver:  Solving for Uy, Initial residual = 0.000123210222848, Final residual = 1.12007571056e-05, No Iterations 4
smoothSolver:  Solving for Uz, Initial residual = 1.02619808817e-05, Final residual = 5.61952286508e-06, No Iterations 1
GAMG:  Solving for p, Initial residual = 1.5068113171e-06, Final residual = 7.572253966e-07, No Iterations 1
time step continuity errors : sum local = 8.17640558098e-06, global = 1.23377491538e-07, cumulative = 4.12477370054
ExecutionTime = 103.04 s  ClockTime = 104 s

Time = 1570

smoothSolver:  Solving for Ux, Initial residual = 9.98296576469e-06, Final residual = 9.98296576469e-06, No Iterations 0
smoothSolver:  Solving for Uy, Initial residual = 0.000123011657314, Final residual = 1.11829424746e-05, No Iterations 4
smoothSolver:  Solving for Uz, Initial residual = 1.02494503506e-05, Final residual = 5.61267003188e-06, No Iterations 1
GAMG:  Solving for p, Initial residual = 1.46859974162e-06, Final residual = 7.43301693738e-07, No Iterations 1
time step continuity errors : sum local = 8.02602029905e-06, global = 1.18185094794e-07, cumulative = 4.12477381873
ExecutionTime = 103.1 s  ClockTime = 104 s

Time = 1571

smoothSolver:  Solving for Ux, Initial residual = 1.00099614307e-05, Final residual = 5.26416240218e-06, No Iterations 1
smoothSolver:  Solving for Uy, Initial residual = 0.000122823342737, Final residual = 1.11658441109e-05, No Iterations 4
smoothSolver:  Solving for Uz, Initial residual = 1.02369076157e-05, Final residual = 5.60580773384e-06, No Iterations 1
GAMG:  Solving for p, Initial residual = 1.46122121443e-06, Final residual = 7.39523218541e-07, No Iterations 1
time step continuity errors : sum local = 7.98518279649e-06, global = 1.19242686719e-07, cumulative = 4.12477393797
ExecutionTime = 103.16 s  ClockTime = 104 s

Time = 1572

smoothSolver:  Solving for Ux, Initial residual = 9.86081290498e-06, Final residual = 9.86081290498e-06, No Iterations 0
smoothSolver:  Solving for Uy, Initial residual = 0.000122643045593, Final residual = 1.11495129171e-05, No Iterations 4
smoothSolver:  Solving for Uz, Initial residual = 1.02243162758e-05, Final residual = 5.59891928413e-06, No Iterations 1
GAMG:  Solving for p, Initial residual = 1.46154289065e-06, Final residual = 8.41371994677e-07, No Iterations 1
time step continuity errors : sum local = 9.08487655385e-06, global = 7.50958884976e-08, cumulative = 4.12477401306
ExecutionTime = 103.22 s  ClockTime = 104 s

Time = 1573

smoothSolver:  Solving for Ux, Initial residual = 9.96103530611e-06, Final residual = 9.96103530611e-06, No Iterations 0
smoothSolver:  Solving for Uy, Initial residual = 0.000122486569277, Final residual = 1.11353746502e-05, No Iterations 4
smoothSolver:  Solving for Uz, Initial residual = 1.02115782607e-05, Final residual = 5.59194344934e-06, No Iterations 1
GAMG:  Solving for p, Initial residual = 1.47776348914e-06, Final residual = 7.36858962031e-07, No Iterations 1
time step continuity errors : sum local = 7.95632192832e-06, global = 1.15438443835e-07, cumulative = 4.1247741285
ExecutionTime = 103.28 s  ClockTime = 104 s

Time = 1574

smoothSolver:  Solving for Ux, Initial residual = 9.98493589914e-06, Final residual = 9.98493589914e-06, No Iterations 0
smoothSolver:  Solving for Uy, Initial residual = 0.00012229644598, Final residual = 1.11183212026e-05, No Iterations 4
smoothSolver:  Solving for Uz, Initial residual = 1.01990055373e-05, Final residual = 5.5850676676e-06, No Iterations 1
GAMG:  Solving for p, Initial residual = 1.45324752018e-06, Final residual = 7.3557455954e-07, No Iterations 1
time step continuity errors : sum local = 7.9424156755e-06, global = 1.10611736948e-07, cumulative = 4.12477423911
ExecutionTime = 103.34 s  ClockTime = 104 s

Time = 1575

smoothSolver:  Solving for Ux, Initial residual = 9.99269577224e-06, Final residual = 9.99269577224e-06, No Iterations 0
smoothSolver:  Solving for Uy, Initial residual = 0.000122114799056, Final residual = 1.11018723718e-05, No Iterations 4
smoothSolver:  Solving for Uz, Initial residual = 1.01864250119e-05, Final residual = 5.57818528546e-06, No Iterations 1
GAMG:  Solving for p, Initial residual = 1.45295250404e-06, Final residual = 7.44577275769e-07, No Iterations 1
time step continuity errors : sum local = 8.03958547601e-06, global = 1.1016796827e-07, cumulative = 4.12477434928
ExecutionTime = 103.41 s  ClockTime = 104 s

Time = 1576

smoothSolver:  Solving for Ux, Initial residual = 1.00043327359e-05, Final residual = 5.2682883956e-06, No Iterations 1
smoothSolver:  Solving for Uy, Initial residual = 0.000121940068494, Final residual = 1.10860673447e-05, No Iterations 4
smoothSolver:  Solving for Uz, Initial residual = 1.01738159995e-05, Final residual = 5.57128748414e-06, No Iterations 1
GAMG:  Solving for p, Initial residual = 1.45657204579e-06, Final residual = 7.55252487899e-07, No Iterations 1
time step continuity errors : sum local = 8.15481332155e-06, global = 1.11160697282e-07, cumulative = 4.12477446044
ExecutionTime = 103.47 s  ClockTime = 104 s

Time = 1577

smoothSolver:  Solving for Ux, Initial residual = 9.86493945692e-06, Final residual = 9.86493945692e-06, No Iterations 0
smoothSolver:  Solving for Uy, Initial residual = 0.000121767486537, Final residual = 1.10704872349e-05, No Iterations 4
smoothSolver:  Solving for Uz, Initial residual = 1.01612123357e-05, Final residual = 5.56439163066e-06, No Iterations 1
GAMG:  Solving for p, Initial residual = 1.4576960016e-06, Final residual = 7.62422262474e-07, No Iterations 1
time step continuity errors : sum local = 8.23219054841e-06, global = 1.12330684772e-07, cumulative = 4.12477457277
ExecutionTime = 103.53 s  ClockTime = 104 s

Time = 1578

smoothSolver:  Solving for Ux, Initial residual = 9.97169487199e-06, Final residual = 9.97169487199e-06, No Iterations 0
smoothSolver:  Solving for Uy, Initial residual = 0.000121596801475, Final residual = 1.10550862075e-05, No Iterations 4
smoothSolver:  Solving for Uz, Initial residual = 1.01486147001e-05, Final residual = 5.55749911738e-06, No Iterations 1
GAMG:  Solving for p, Initial residual = 1.45681939708e-06, Final residual = 7.65338916108e-07, No Iterations 1
time step continuity errors : sum local = 8.2636446534e-06, global = 1.13521973594e-07, cumulative = 4.1247746863
ExecutionTime = 103.59 s  ClockTime = 104 s

Time = 1579

smoothSolver:  Solving for Ux, Initial residual = 1.00104600354e-05, Final residual = 5.26232802432e-06, No Iterations 1
smoothSolver:  Solving for Uy, Initial residual = 0.000121425982975, Final residual = 1.10396719294e-05, No Iterations 4
smoothSolver:  Solving for Uz, Initial residual = 1.01360491857e-05, Final residual = 5.55062387039e-06, No Iterations 1
GAMG:  Solving for p, Initial residual = 1.4547206946e-06, Final residual = 7.65429249329e-07, No Iterations 1
time step continuity errors : sum local = 8.26458180967e-06, global = 1.14700037609e-07, cumulative = 4.124774801
ExecutionTime = 103.64 s  ClockTime = 104 s

Time = 1580

smoothSolver:  Solving for Ux, Initial residual = 9.85941346301e-06, Final residual = 9.85941346301e-06, No Iterations 0
smoothSolver:  Solving for Uy, Initial residual = 0.000121254852743, Final residual = 1.10242177055e-05, No Iterations 4
smoothSolver:  Solving for Uz, Initial residual = 1.01235215066e-05, Final residual = 5.54376893951e-06, No Iterations 1
GAMG:  Solving for p, Initial residual = 1.45235131215e-06, Final residual = 7.6391818242e-07, No Iterations 1
time step continuity errors : sum local = 8.24822822721e-06, global = 1.15923894958e-07, cumulative = 4.12477491692
ExecutionTime = 103.7 s  ClockTime = 104 s

Time = 1581

smoothSolver:  Solving for Ux, Initial residual = 9.9522056044e-06, Final residual = 9.9522056044e-06, No Iterations 0
smoothSolver:  Solving for Uy, Initial residual = 0.000121082743121, Final residual = 1.10086664567e-05, No Iterations 4
smoothSolver:  Solving for Uz, Initial residual = 1.01110417833e-05, Final residual = 5.53693975149e-06, No Iterations 1
GAMG:  Solving for p, Initial residual = 1.44999069498e-06, Final residual = 7.615882563e-07, No Iterations 1
time step continuity errors : sum local = 8.22303337691e-06, global = 1.17206509065e-07, cumulative = 4.12477503413
ExecutionTime = 103.77 s  ClockTime = 104 s

Time = 1582

smoothSolver:  Solving for Ux, Initial residual = 9.9828773016e-06, Final residual = 9.9828773016e-06, No Iterations 0
smoothSolver:  Solving for Uy, Initial residual = 0.000120909992898, Final residual = 1.09930515292e-05, No Iterations 4
smoothSolver:  Solving for Uz, Initial residual = 1.00986068108e-05, Final residual = 5.53013468853e-06, No Iterations 1
GAMG:  Solving for p, Initial residual = 1.44772822827e-06, Final residual = 7.5875652422e-07, No Iterations 1
time step continuity errors : sum local = 8.19242077741e-06, global = 1.18572769217e-07, cumulative = 4.1247751527
ExecutionTime = 103.83 s  ClockTime = 104 s

Time = 1583

smoothSolver:  Solving for Ux, Initial residual = 1.00149009694e-05, Final residual = 5.26209374292e-06, No Iterations 1
smoothSolver:  Solving for Uy, Initial residual = 0.000120736748345, Final residual = 1.09773916638e-05, No Iterations 4
smoothSolver:  Solving for Uz, Initial residual = 1.00862134271e-05, Final residual = 5.52335201429e-06, No Iterations 1
GAMG:  Solving for p, Initial residual = 1.44538290712e-06, Final residual = 7.55744571245e-07, No Iterations 1
time step continuity errors : sum local = 8.15986268657e-06, global = 1.20015205638e-07, cumulative = 4.12477527271
ExecutionTime = 103.88 s  ClockTime = 104 s

Time = 1584

smoothSolver:  Solving for Ux, Initial residual = 9.84802138408e-06, Final residual = 9.84802138408e-06, No Iterations 0
smoothSolver:  Solving for Uy, Initial residual = 0.000120563495407, Final residual = 1.09617328498e-05, No Iterations 4
smoothSolver:  Solving for Uz, Initial residual = 1.00738532651e-05, Final residual = 5.51658735676e-06, No Iterations 1
GAMG:  Solving for p, Initial residual = 1.44287804616e-06, Final residual = 7.52706549052e-07, No Iterations 1
time step continuity errors : sum local = 8.12702341967e-06, global = 1.21523742916e-07, cumulative = 4.12477539424
ExecutionTime = 103.94 s  ClockTime = 104 s

Time = 1585

smoothSolver:  Solving for Ux, Initial residual = 9.94185600972e-06, Final residual = 9.94185600972e-06, No Iterations 0
smoothSolver:  Solving for Uy, Initial residual = 0.000120390463501, Final residual = 1.09460982981e-05, No Iterations 4
smoothSolver:  Solving for Uz, Initial residual = 1.0061519943e-05, Final residual = 5.50983774811e-06, No Iterations 1
GAMG:  Solving for p, Initial residual = 1.4401485429e-06, Final residual = 8.41334384069e-07, No Iterations 1
time step continuity errors : sum local = 9.08390244894e-06, global = 7.76352773707e-08, cumulative = 4.12477547187
ExecutionTime = 104 s  ClockTime = 104 s

Time = 1586

smoothSolver:  Solving for Ux, Initial residual = 9.97893215402e-06, Final residual = 9.97893215402e-06, No Iterations 0
smoothSolver:  Solving for Uy, Initial residual = 0.00012023611658, Final residual = 1.09321298784e-05, No Iterations 4
smoothSolver:  Solving for Uz, Initial residual = 1.00491174791e-05, Final residual = 5.50304289893e-06, No Iterations 1
GAMG:  Solving for p, Initial residual = 1.46298882687e-06, Final residual = 7.45280092414e-07, No Iterations 1
time step continuity errors : sum local = 8.04674868082e-06, global = 1.16692404042e-07, cumulative = 4.12477558857
ExecutionTime = 104.06 s  ClockTime = 105 s

Time = 1587

smoothSolver:  Solving for Ux, Initial residual = 1.00021198326e-05, Final residual = 5.2601484326e-06, No Iterations 1
smoothSolver:  Solving for Uy, Initial residual = 0.000120048302392, Final residual = 1.09152490027e-05, No Iterations 4
smoothSolver:  Solving for Uz, Initial residual = 1.00368890965e-05, Final residual = 5.49635263365e-06, No Iterations 1
GAMG:  Solving for p, Initial residual = 1.43573841651e-06, Final residual = 7.30379041144e-07, No Iterations 1
time step continuity errors : sum local = 7.88582651497e-06, global = 1.09928883368e-07, cumulative = 4.12477569849
ExecutionTime = 104.12 s  ClockTime = 105 s

Time = 1588

smoothSolver:  Solving for Ux, Initial residual = 9.84769999386e-06, Final residual = 9.84769999386e-06, No Iterations 0
smoothSolver:  Solving for Uy, Initial residual = 0.000119867300871, Final residual = 1.08988348604e-05, No Iterations 4
smoothSolver:  Solving for Uz, Initial residual = 1.00246634263e-05, Final residual = 5.48966226659e-06, No Iterations 1
GAMG:  Solving for p, Initial residual = 1.4301863203e-06, Final residual = 7.27648815989e-07, No Iterations 1
time step continuity errors : sum local = 7.85631351584e-06, global = 1.07778750149e-07, cumulative = 4.12477580627
ExecutionTime = 104.18 s  ClockTime = 105 s

Time = 1589

smoothSolver:  Solving for Ux, Initial residual = 9.95981037394e-06, Final residual = 9.95981037394e-06, No Iterations 0
smoothSolver:  Solving for Uy, Initial residual = 0.000119692870071, Final residual = 1.08830436795e-05, No Iterations 4
smoothSolver:  Solving for Uz, Initial residual = 1.00124063574e-05, Final residual = 5.48295562634e-06, No Iterations 1
GAMG:  Solving for p, Initial residual = 1.42973950036e-06, Final residual = 7.30958547145e-07, No Iterations 1
time step continuity errors : sum local = 7.89201317722e-06, global = 1.07592663117e-07, cumulative = 4.12477591387
ExecutionTime = 104.24 s  ClockTime = 105 s

Time = 1590

smoothSolver:  Solving for Ux, Initial residual = 9.99311885829e-06, Final residual = 9.99311885829e-06, No Iterations 0
smoothSolver:  Solving for Uy, Initial residual = 0.000119521372021, Final residual = 1.08675587729e-05, No Iterations 4
smoothSolver:  Solving for Uz, Initial residual = 1.00001319319e-05, Final residual = 5.47623946691e-06, No Iterations 1
GAMG:  Solving for p, Initial residual = 1.42873673498e-06, Final residual = 7.36213631281e-07, No Iterations 1
time step continuity errors : sum local = 7.94871613147e-06, global = 1.07804023935e-07, cumulative = 4.12477602167
ExecutionTime = 104.3 s  ClockTime = 105 s

Time = 1591

smoothSolver:  Solving for Ux, Initial residual = 1.00052030676e-05, Final residual = 5.25848243699e-06, No Iterations 1
smoothSolver:  Solving for Uy, Initial residual = 0.000119352545082, Final residual = 1.08523319907e-05, No Iterations 4
smoothSolver:  Solving for Uz, Initial residual = 9.98783918893e-06, Final residual = 9.98783918893e-06, No Iterations 0
GAMG:  Solving for p, Initial residual = 3.02805095843e-05, Final residual = 1.41799280671e-06, No Iterations 10
time step continuity errors : sum local = 1.53096319582e-05, global = 6.46719209506e-08, cumulative = 4.12477608634
ExecutionTime = 104.37 s  ClockTime = 105 s

Time = 1592

smoothSolver:  Solving for Ux, Initial residual = 9.84217952534e-06, Final residual = 9.84217952534e-06, No Iterations 0
smoothSolver:  Solving for Uy, Initial residual = 9.3109616634e-05, Final residual = 8.41462646797e-06, No Iterations 4
smoothSolver:  Solving for Uz, Initial residual = 1.02300089053e-05, Final residual = 5.59832885918e-06, No Iterations 1
GAMG:  Solving for p, Initial residual = 2.11232288455e-05, Final residual = 7.1771640327e-07, No Iterations 10
time step continuity errors : sum local = 7.74854420729e-06, global = -4.69492796247e-08, cumulative = 4.12477603939
ExecutionTime = 104.44 s  ClockTime = 105 s


SIMPLE solution converged in 1592 iterations

    writing object shearStress
End

Finalising parallel run
